@<TRIPOS>MOLECULE
14_dichlorobutane
   14    13     0     0     0
SMALL
USER_CHARGES

@<TRIPOS>ATOM
      1 C1          0.8978   -0.5217    0.3539 C.3       1 MOL        -0.0907
      2 C2          2.0855    0.4471    0.3015 C.3       1 MOL        -0.0907
      3 C3          0.6160   -1.0495    1.7578 C.3       1 MOL         0.0404
      4 C4          2.3215    1.0320   -1.0881 C.3       1 MOL         0.0404
      5 Cl1         1.9965   -1.9549    2.4197 Cl        1 MOL        -0.1968
      6 Cl2         2.6839   -0.2282   -2.2898 Cl        1 MOL        -0.1968
      7 H1          1.0605   -1.3657   -0.3264 H         1 MOL         0.0593
      8 H2          0.0000    0.0000    0.0000 H         1 MOL         0.0593
      9 H3          3.0001   -0.0477    0.6483 H         1 MOL         0.0593
     10 H4          1.8950    1.2777    0.9924 H         1 MOL         0.0593
     11 H5          0.3853   -0.2331    2.4489 H         1 MOL         0.0643
     12 H6         -0.2387   -1.7322    1.7377 H         1 MOL         0.0643
     13 H7          1.4468    1.5894   -1.4369 H         1 MOL         0.0643
     14 H8          3.1760    1.7150   -1.0678 H         1 MOL         0.0643
@<TRIPOS>BOND
     1    1    2 1
     2    1    3 1
     3    2    4 1
     4    3    5 1
     5    4    6 1
     6    1    7 1
     7    1    8 1
     8    2    9 1
     9    2   10 1
    10    3   11 1
    11    3   12 1
    12    4   13 1
    13    4   14 1
