@<TRIPOS>MOLECULE
butan_1_ol
   15    14     0     0     0
SMALL
USER_CHARGES

@<TRIPOS>ATOM
      1 C1          0.4039   -1.0521   -0.1122 C.3       1 MOL        -0.0924
      2 C2         -0.5795   -2.0238    0.5201 C.3       1 MOL        -0.0763
      3 C3         -1.9307   -1.9925   -0.1885 C.3       1 MOL        -0.1125
      4 C4         -2.9047   -2.9950    0.4140 C.3       1 MOL         0.1307
      5 O1         -4.1328   -2.9264   -0.2974 O.3       1 MOL        -0.6012
      6 H1          0.5784   -1.2994   -1.1642 H         1 MOL         0.0341
      7 H2          0.0299   -0.0247   -0.0580 H         1 MOL         0.0341
      8 H3          1.3649   -1.0917    0.4100 H         1 MOL         0.0341
      9 H4         -0.1611   -3.0362    0.4794 H         1 MOL         0.0397
     10 H5         -0.7076   -1.7680    1.5784 H         1 MOL         0.0397
     11 H6         -2.3650   -0.9865   -0.1342 H         1 MOL         0.0461
     12 H7         -1.8040   -2.2065   -1.2572 H         1 MOL         0.0461
     13 H8         -2.5139   -4.0145    0.3363 H         1 MOL         0.0402
     14 H9         -3.0991   -2.7668    1.4668 H         1 MOL         0.0402
     15 H10        -3.9106   -2.9404   -1.2425 H         1 MOL         0.3973
@<TRIPOS>BOND
     1    1    2 1
     2    2    3 1
     3    3    4 1
     4    4    5 1
     5    1    6 1
     6    1    7 1
     7    1    8 1
     8    2    9 1
     9    2   10 1
    10    3   11 1
    11    3   12 1
    12    4   13 1
    13    4   14 1
    14    5   15 1
