@<TRIPOS>MOLECULE
12_ethanediol
   10     9     0     0     0
SMALL
USER_CHARGES

@<TRIPOS>ATOM
      1 C1         -0.8936    0.4506    0.4416 C.3       1 MOL         0.0977
      2 C2         -2.1461   -0.1936   -0.1209 C.3       1 MOL         0.0977
      3 O1         -0.8526    0.2362    1.8472 O.3       1 MOL        -0.5997
      4 O2         -2.1048   -1.5918    0.1373 O.3       1 MOL        -0.5997
      5 H1         -0.8901    1.5299    0.2612 H         1 MOL         0.0486
      6 H2          0.0000    0.0000    0.0000 H         1 MOL         0.0486
      7 H3         -2.2121   -0.0487   -1.2038 H         1 MOL         0.0486
      8 H4         -3.0378    0.2178    0.3611 H         1 MOL         0.0486
      9 H5         -0.9002    1.1112    2.2643 H         1 MOL         0.4049
     10 H6         -2.6044   -1.7391    0.9563 H         1 MOL         0.4049
@<TRIPOS>BOND
     1    1    2 1
     2    1    3 1
     3    2    4 1
     4    1    5 1
     5    1    6 1
     6    2    7 1
     7    2    8 1
     8    3    9 1
     9    4   10 1
