@<TRIPOS>MOLECULE
1_iodopropane
   11    10     0     0     0
SMALL
USER_CHARGES

@<TRIPOS>ATOM
      1 C1         -0.5092   -0.5493    0.7984 C.3       1 MOL        -0.0950
      2 C2          0.3041   -0.5215    2.0835 C.3       1 MOL        -0.0735
      3 C3          1.6753   -1.1640    1.8863 C.3       1 MOL         0.0725
      4 I1          2.7878   -1.1442    3.7119 I         1 MOL        -0.2574
      5 H1         -1.4876   -0.0855    0.9590 H         1 MOL         0.0379
      6 H2          0.0000    0.0000    0.0000 H         1 MOL         0.0379
      7 H3         -0.6721   -1.5772    0.4593 H         1 MOL         0.0379
      8 H4         -0.2530   -1.0471    2.8685 H         1 MOL         0.0500
      9 H5          0.4154    0.5191    2.4115 H         1 MOL         0.0500
     10 H6          2.2354   -0.6248    1.1142 H         1 MOL         0.0699
     11 H7          1.5599   -2.1982    1.5429 H         1 MOL         0.0699
@<TRIPOS>BOND
     1    1    2 1
     2    2    3 1
     3    3    4 1
     4    1    5 1
     5    1    6 1
     6    1    7 1
     7    2    8 1
     8    2    9 1
     9    3   10 1
    10    3   11 1
