@<TRIPOS>MOLECULE
chlorodifluoromethane
    5     4     0     0     0
SMALL
USER_CHARGES

@<TRIPOS>ATOM
      1 C1          0.0000    0.0000    0.0000 C.3       1 MOL         0.5252
      2 F1         -1.3188   -0.3121   -0.0160 F         1 MOL        -0.2195
      3 F2          0.5088   -0.4893    1.1571 F         1 MOL        -0.2195
      4 Cl1         0.8152   -0.7284   -1.3800 Cl        1 MOL        -0.1944
      5 H1          0.1169    1.0867   -0.0180 H         1 MOL         0.1083
@<TRIPOS>BOND
     1    1    2 1
     2    1    3 1
     3    1    4 1
     4    1    5 1
