@<TRIPOS>MOLECULE
decan_1_ol
   33    32     0     0     0
SMALL
USER_CHARGES

@<TRIPOS>ATOM
      1 C1         -2.9628    2.3594    0.3759 C.3       1 MOL        -0.0896
      2 C2         -3.3899    2.1891   -1.0732 C.3       1 MOL        -0.0777
      3 C3         -3.3848    0.7182   -1.4892 C.3       1 MOL        -0.0768
      4 C4         -3.8476    0.5476   -2.9381 C.3       1 MOL        -0.0765
      5 C5         -3.8779   -0.9289   -3.3391 C.3       1 MOL        -0.0761
      6 C6         -4.4032   -1.1639   -4.7582 C.3       1 MOL        -0.0768
      7 C7         -4.5034   -2.6442   -5.1326 C.3       1 MOL        -0.0761
      8 C8         -5.0037   -2.8195   -6.5688 C.3       1 MOL        -0.0759
      9 C9         -5.1331   -4.3010   -6.9352 C.3       1 MOL        -0.0790
     10 C10        -5.6614   -4.5005   -8.3505 C.3       1 MOL         0.1340
     11 O1         -5.7443   -5.8873   -8.6459 O.3       1 MOL        -0.6034
     12 H1         -1.9488    1.9780    0.5333 H         1 MOL         0.0314
     13 H2         -3.6398    1.8250    1.0500 H         1 MOL         0.0314
     14 H3         -2.9738    3.4182    0.6526 H         1 MOL         0.0314
     15 H4         -4.3939    2.6094   -1.2041 H         1 MOL         0.0368
     16 H5         -2.7119    2.7610   -1.7174 H         1 MOL         0.0368
     17 H6         -2.3742    0.3074   -1.3758 H         1 MOL         0.0382
     18 H7         -4.0428    0.1467   -0.8234 H         1 MOL         0.0382
     19 H8         -3.1708    1.1025   -3.5973 H         1 MOL         0.0383
     20 H9         -4.8476    0.9817   -3.0572 H         1 MOL         0.0383
     21 H10        -2.8740   -1.3601   -3.2423 H         1 MOL         0.0378
     22 H11        -4.5246   -1.4757   -2.6415 H         1 MOL         0.0378
     23 H12        -3.7623   -0.6416   -5.4789 H         1 MOL         0.0391
     24 H13        -5.3984   -0.7080   -4.8329 H         1 MOL         0.0391
     25 H14        -5.1866   -3.1530   -4.4419 H         1 MOL         0.0383
     26 H15        -3.5233   -3.1240   -5.0343 H         1 MOL         0.0383
     27 H16        -4.3080   -2.3303   -7.2615 H         1 MOL         0.0425
     28 H17        -5.9744   -2.3219   -6.6799 H         1 MOL         0.0425
     29 H18        -4.1562   -4.7898   -6.8458 H         1 MOL         0.0509
     30 H19        -5.8138   -4.7837   -6.2234 H         1 MOL         0.0509
     31 H20        -4.9826   -4.0354   -9.0722 H         1 MOL         0.0187
     32 H21        -6.6547   -4.0548   -8.4648 H         1 MOL         0.0187
     33 H22        -6.5215   -6.0074   -9.2157 H         1 MOL         0.3985
@<TRIPOS>BOND
     1    1    2 1
     2    2    3 1
     3    3    4 1
     4    4    5 1
     5    5    6 1
     6    6    7 1
     7    7    8 1
     8    8    9 1
     9    9   10 1
    10   10   11 1
    11    1   12 1
    12    1   13 1
    13    1   14 1
    14    2   15 1
    15    2   16 1
    16    3   17 1
    17    3   18 1
    18    4   19 1
    19    4   20 1
    20    5   21 1
    21    5   22 1
    22    6   23 1
    23    6   24 1
    24    7   25 1
    25    7   26 1
    26    8   27 1
    27    8   28 1
    28    9   29 1
    29    9   30 1
    30   10   31 1
    31   10   32 1
    32   11   33 1
