@<TRIPOS>MOLECULE
11_dichloroethane
    8     7     0     0     0
SMALL
USER_CHARGES

@<TRIPOS>ATOM
      1 C1         -0.4712    0.6837    0.7145 C.3       1 MOL        -0.1100
      2 C2         -0.0877    0.3252    2.1389 C.3       1 MOL         0.1596
      3 Cl1        -0.8870    1.4225    3.2882 Cl        1 MOL        -0.1639
      4 Cl2         1.6769    0.4133    2.3441 Cl        1 MOL        -0.1639
      5 H1         -0.1656    1.7038    0.4555 H         1 MOL         0.0614
      6 H2         -0.0000    0.0000    0.0000 H         1 MOL         0.0614
      7 H3         -1.5551    0.6111    0.5727 H         1 MOL         0.0614
      8 H4         -0.4016   -0.6948    2.3770 H         1 MOL         0.0940
@<TRIPOS>BOND
     1    1    2 1
     2    2    3 1
     3    2    4 1
     4    1    5 1
     5    1    6 1
     6    1    7 1
     7    2    8 1
