@<TRIPOS>MOLECULE
n_octylamine
   28    27     0     0     0
SMALL
USER_CHARGES

@<TRIPOS>ATOM
      1 C1         -3.5681   -0.5598   -0.1097 C.3       1 MOL        -0.0896
      2 C2         -2.2991    0.2702    0.0096 C.3       1 MOL        -0.0775
      3 C3         -2.5102    1.7549   -0.2984 C.3       1 MOL        -0.0764
      4 C4         -1.2345    2.5882   -0.1504 C.3       1 MOL        -0.0767
      5 C5         -1.4284    4.0632   -0.5169 C.3       1 MOL        -0.0768
      6 C6         -0.1612    4.9037   -0.3449 C.3       1 MOL        -0.0752
      7 C7         -0.4041    6.3611   -0.7464 C.3       1 MOL        -0.0789
      8 C8          0.8515    7.2070   -0.5416 C.3       1 MOL         0.1603
      9 N1          0.5967    8.5916   -0.9212 N.3       1 MOL        -0.9165
     10 H1         -4.0243   -0.4404   -1.0975 H         1 MOL         0.0314
     11 H2         -4.3045   -0.2781    0.6487 H         1 MOL         0.0314
     12 H3         -3.3373   -1.6207    0.0307 H         1 MOL         0.0314
     13 H4         -1.8799    0.1533    1.0157 H         1 MOL         0.0369
     14 H5         -1.5554   -0.1275   -0.6914 H         1 MOL         0.0369
     15 H6         -2.8798    1.8421   -1.3274 H         1 MOL         0.0379
     16 H7         -3.2962    2.1475    0.3565 H         1 MOL         0.0379
     17 H8         -0.8559    2.5206    0.8758 H         1 MOL         0.0387
     18 H9         -0.4573    2.1736   -0.8042 H         1 MOL         0.0387
     19 H10        -1.7536    4.1147   -1.5635 H         1 MOL         0.0387
     20 H11        -2.2398    4.4884    0.0864 H         1 MOL         0.0387
     21 H12         0.1725    4.8709    0.6982 H         1 MOL         0.0407
     22 H13         0.6449    4.4837   -0.9586 H         1 MOL         0.0407
     23 H14        -0.7123    6.4041   -1.7988 H         1 MOL         0.0429
     24 H15        -1.2301    6.7702   -0.1511 H         1 MOL         0.0429
     25 H16         1.6732    6.8155   -1.1510 H         1 MOL         0.0232
     26 H17         1.1666    7.1703    0.5070 H         1 MOL         0.0232
     27 H18         0.9817    9.2079   -0.2093 H         1 MOL         0.3474
     28 H19        -0.4073    8.7544   -0.9308 H         1 MOL         0.3474
@<TRIPOS>BOND
     1    1    2 1
     2    2    3 1
     3    3    4 1
     4    4    5 1
     5    5    6 1
     6    6    7 1
     7    7    8 1
     8    8    9 1
     9    1   10 1
    10    1   11 1
    11    1   12 1
    12    2   13 1
    13    2   14 1
    14    3   15 1
    15    3   16 1
    16    4   17 1
    17    4   18 1
    18    5   19 1
    19    5   20 1
    20    6   21 1
    21    6   22 1
    22    7   23 1
    23    7   24 1
    24    8   25 1
    25    8   26 1
    26    9   27 1
    27    9   28 1
