@<TRIPOS>MOLECULE
n_butanethiol
   15    14     0     0     0
SMALL
USER_CHARGES

@<TRIPOS>ATOM
      1 C1          0.8879   -0.0985   -0.6256 C.3       1 MOL        -0.0931
      2 C2          0.8885   -1.4198   -1.3796 C.3       1 MOL        -0.0795
      3 C3         -0.3384   -1.5430   -2.2871 C.3       1 MOL        -0.0748
      4 C4         -0.4452   -2.8933   -2.9954 C.3       1 MOL         0.0127
      5 S1          0.9538   -3.2248   -4.1064 S.3       1 MOL        -0.3819
      6 H1          1.7691   -0.0301    0.0200 H         1 MOL         0.0349
      7 H2         -0.0027   -0.0060    0.0044 H         1 MOL         0.0349
      8 H3          0.9082    0.7482   -1.3192 H         1 MOL         0.0349
      9 H4          0.9009   -2.2445   -0.6576 H         1 MOL         0.0414
     10 H5          1.8112   -1.4872   -1.9659 H         1 MOL         0.0414
     11 H6         -0.3459   -0.7281   -3.0219 H         1 MOL         0.0502
     12 H7         -1.2397   -1.4132   -1.6745 H         1 MOL         0.0502
     13 H8         -0.5106   -3.7055   -2.2644 H         1 MOL         0.0655
     14 H9         -1.3592   -2.9163   -3.5978 H         1 MOL         0.0655
     15 H10         1.1284   -4.5003   -3.7355 H         1 MOL         0.1977
@<TRIPOS>BOND
     1    1    2 1
     2    2    3 1
     3    3    4 1
     4    4    5 1
     5    1    6 1
     6    1    7 1
     7    1    8 1
     8    2    9 1
     9    2   10 1
    10    3   11 1
    11    3   12 1
    12    4   13 1
    13    4   14 1
    14    5   15 1
