@<TRIPOS>MOLECULE
1_iodohexane
   20    19     0     0     0
SMALL
USER_CHARGES

@<TRIPOS>ATOM
      1 C1          0.6358   -0.6970    0.5558 C.3       1 MOL        -0.0900
      2 C2         -0.0569   -1.1329    1.8370 C.3       1 MOL        -0.0783
      3 C3          0.8240   -2.0750    2.6572 C.3       1 MOL        -0.0767
      4 C4          0.1101   -2.5375    3.9297 C.3       1 MOL        -0.0786
      5 C5          1.0061   -3.4606    4.7630 C.3       1 MOL        -0.0737
      6 C6          0.3014   -4.0388    5.9913 C.3       1 MOL         0.0721
      7 I1          1.5336   -5.4151    7.0675 I         1 MOL        -0.2565
      8 H1          1.5684   -0.1672    0.7746 H         1 MOL         0.0323
      9 H2         -0.0116   -0.0235   -0.0146 H         1 MOL         0.0323
     10 H3          0.8702   -1.5594   -0.0764 H         1 MOL         0.0323
     11 H4         -0.3067   -0.2456    2.4304 H         1 MOL         0.0386
     12 H5         -1.0004   -1.6305    1.5843 H         1 MOL         0.0386
     13 H6          1.7577   -1.5653    2.9246 H         1 MOL         0.0395
     14 H7          1.0942   -2.9470    2.0493 H         1 MOL         0.0395
     15 H8         -0.8110   -3.0679    3.6591 H         1 MOL         0.0418
     16 H9         -0.1831   -1.6596    4.5156 H         1 MOL         0.0418
     17 H10         1.9223   -2.9329    5.0546 H         1 MOL         0.0521
     18 H11         1.3175   -4.3001    4.1281 H         1 MOL         0.0521
     19 H12        -0.0340   -3.2340    6.6545 H         1 MOL         0.0705
     20 H13        -0.5964   -4.5743    5.6615 H         1 MOL         0.0705
@<TRIPOS>BOND
     1    1    2 1
     2    2    3 1
     3    3    4 1
     4    4    5 1
     5    5    6 1
     6    6    7 1
     7    1    8 1
     8    1    9 1
     9    1   10 1
    10    2   11 1
    11    2   12 1
    12    3   13 1
    13    3   14 1
    14    4   15 1
    15    4   16 1
    16    5   17 1
    17    5   18 1
    18    6   19 1
    19    6   20 1
