@<TRIPOS>MOLECULE
n_propylamine
   13    12     0     0     0
SMALL
USER_CHARGES

@<TRIPOS>ATOM
      1 C1          0.9952   -0.2871    0.3545 C.3       1 MOL        -0.0897
      2 C2          1.1802    0.0831    1.8180 C.3       1 MOL        -0.1220
      3 C3          0.1575   -0.6240    2.7038 C.3       1 MOL         0.1521
      4 N1          0.3420   -0.2375    4.0975 N.3       1 MOL        -0.9048
      5 H1          1.1160   -1.3646    0.2041 H         1 MOL         0.0326
      6 H2          0.0000   -0.0000    0.0000 H         1 MOL         0.0326
      7 H3          1.7375    0.2276   -0.2635 H         1 MOL         0.0326
      8 H4          1.0845    1.1701    1.9267 H         1 MOL         0.0398
      9 H5          2.1976   -0.1851    2.1280 H         1 MOL         0.0398
     10 H6          0.2626   -1.7106    2.6114 H         1 MOL         0.0498
     11 H7         -0.8586   -0.3596    2.3917 H         1 MOL         0.0498
     12 H8          0.9698    0.5617    4.1408 H         1 MOL         0.3437
     13 H9          0.8051   -0.9948    4.5942 H         1 MOL         0.3437
@<TRIPOS>BOND
     1    1    2 1
     2    2    3 1
     3    3    4 1
     4    1    5 1
     5    1    6 1
     6    1    7 1
     7    2    8 1
     8    2    9 1
     9    3   10 1
    10    3   11 1
    11    4   12 1
    12    4   13 1
