@<TRIPOS>MOLECULE
dibromomethane
    5     4     0     0     0
SMALL
USER_CHARGES

@<TRIPOS>ATOM
      1 C1         -0.4347    0.9372   -0.3520 C.3       1 MOL         0.0122
      2 Br1        -1.1032    0.6570   -2.1443 Br        1 MOL        -0.1091
      3 Br2        -1.8041    1.4761    0.9020 Br        1 MOL        -0.1091
      4 H1          0.3216    1.7232   -0.3894 H         1 MOL         0.1030
      5 H2          0.0000    0.0000    0.0000 H         1 MOL         0.1030
@<TRIPOS>BOND
     1    1    2 1
     2    1    3 1
     3    1    4 1
     4    1    5 1
