@<TRIPOS>MOLECULE
1_bromoheptane
   23    22     0     0     0
SMALL
USER_CHARGES

@<TRIPOS>ATOM
      1 C1          0.2501   -0.5584    0.8998 C.3       1 MOL        -0.0899
      2 C2          1.7279   -0.3976    1.2185 C.3       1 MOL        -0.0777
      3 C3          2.6062   -0.9723    0.1073 C.3       1 MOL        -0.0770
      4 C4          4.0924   -0.8387    0.4475 C.3       1 MOL        -0.0766
      5 C5          4.9703   -1.3796   -0.6833 C.3       1 MOL        -0.0807
      6 C6          6.4692   -1.2815   -0.3869 C.3       1 MOL        -0.0775
      7 C7          7.3340   -1.8513   -1.4992 C.3       1 MOL        -0.0052
      8 Br1         9.2123   -1.7427   -0.9902 Br        1 MOL        -0.1821
      9 H1         -0.3593   -0.1443    1.7091 H         1 MOL         0.0320
     10 H2         -0.0112   -0.0336   -0.0247 H         1 MOL         0.0320
     11 H3         -0.0134   -1.6143    0.7821 H         1 MOL         0.0320
     12 H4          1.9484   -0.9023    2.1664 H         1 MOL         0.0375
     13 H5          1.9521    0.6665    1.3574 H         1 MOL         0.0375
     14 H6          2.3958   -0.4498   -0.8338 H         1 MOL         0.0394
     15 H7          2.3585   -2.0296   -0.0474 H         1 MOL         0.0394
     16 H8          4.2976   -1.3833    1.3758 H         1 MOL         0.0397
     17 H9          4.3339    0.2156    0.6281 H         1 MOL         0.0397
     18 H10         4.7648   -0.8120   -1.5994 H         1 MOL         0.0450
     19 H11         4.7046   -2.4231   -0.8923 H         1 MOL         0.0450
     20 H12         6.7177   -0.2232   -0.2343 H         1 MOL         0.0531
     21 H13         6.6897   -1.7892    0.5606 H         1 MOL         0.0531
     22 H14         7.1333   -2.9090   -1.6857 H         1 MOL         0.0706
     23 H15         7.2309   -1.2865   -2.4296 H         1 MOL         0.0706
@<TRIPOS>BOND
     1    1    2 1
     2    2    3 1
     3    3    4 1
     4    4    5 1
     5    5    6 1
     6    6    7 1
     7    7    8 1
     8    1    9 1
     9    1   10 1
    10    1   11 1
    11    2   12 1
    12    2   13 1
    13    3   14 1
    14    3   15 1
    15    4   16 1
    16    4   17 1
    17    5   18 1
    18    5   19 1
    19    6   20 1
    20    6   21 1
    21    7   22 1
    22    7   23 1
