@<TRIPOS>MOLECULE
teflurane
    8     7     0     0     0
SMALL
USER_CHARGES

@<TRIPOS>ATOM
      1 C1         -0.0000    0.0000    0.0000 C.3       1 MOL         0.2129
      2 C2          1.1450   -0.9753    0.0357 C.3       1 MOL         0.6252
      3 F1          0.1227    0.7895   -1.0975 F         1 MOL        -0.1849
      4 F2          1.1596   -1.7650   -1.0597 F         1 MOL        -0.2221
      5 F3          1.0922   -1.7704    1.1249 F         1 MOL        -0.2221
      6 F4          2.3235   -0.3129    0.0699 F         1 MOL        -0.2221
      7 Br1        -0.0054    1.1058    1.5969 Br        1 MOL        -0.1071
      8 H1         -0.9664   -0.5085   -0.0431 H         1 MOL         0.1204
@<TRIPOS>BOND
     1    1    2 1
     2    1    3 1
     3    1    7 1
     4    2    4 1
     5    2    5 1
     6    2    6 1
     7    1    8 1
