@<TRIPOS>MOLECULE
11_difluoroethane
    8     7     0     0     0
SMALL
USER_CHARGES

@<TRIPOS>ATOM
      1 C1         -0.2184    0.5515    0.9188 C.3       1 MOL        -0.1489
      2 C2          0.4582   -0.0919    2.1026 C.3       1 MOL         0.4112
      3 F1          0.2140    0.6396    3.2172 F         1 MOL        -0.2535
      4 F2          1.8006   -0.0868    1.9155 F         1 MOL        -0.2535
      5 H1          0.1426    1.5766    0.7878 H         1 MOL         0.0625
      6 H2         -0.0000    0.0000    0.0000 H         1 MOL         0.0625
      7 H3         -1.3010    0.5948    1.0671 H         1 MOL         0.0625
      8 H4          0.1240   -1.1193    2.2686 H         1 MOL         0.0571
@<TRIPOS>BOND
     1    1    2 1
     2    2    3 1
     3    2    4 1
     4    1    5 1
     5    1    6 1
     6    1    7 1
     7    2    8 1
