@<TRIPOS>MOLECULE
TMP
   17    16     1     0     0
SMALL
No Charge or Current Charge


@<TRIPOS>ATOM
      1 C1         -6.3040   -7.6060   -2.5800 C.3       1 MOL     -0.093300
      2 C2         -5.7280   -6.7080   -1.4960 C.3       1 MOL     -0.079500
      3 C3         -5.4290   -7.4930   -0.2190 C.3       1 MOL     -0.080900
      4 C4         -4.8490   -6.5870    0.8680 C.3       1 MOL     -0.081600
      5 C5         -4.5540   -7.3740    2.1340 C.3       1 MOL     -0.008400
      6 Br1        -3.8190   -6.1880    3.4910 Br        1 MOL     -0.179600
      7 H1         -6.5110   -7.0250   -3.4830 H         1 MOL      0.035300
      8 H2         -5.6030   -8.4040   -2.8420 H         1 MOL      0.033500
      9 H3         -7.2410   -8.0670   -2.2500 H         1 MOL      0.033500
     10 H4         -4.8110   -6.2390   -1.8690 H         1 MOL      0.041100
     11 H5         -6.4400   -5.9030   -1.2800 H         1 MOL      0.041100
     12 H6         -6.3490   -7.9640    0.1470 H         1 MOL      0.041800
     13 H7         -4.7190   -8.3000   -0.4420 H         1 MOL      0.041800
     14 H8         -3.9310   -6.1120    0.4990 H         1 MOL      0.056000
     15 H9         -5.5570   -5.7780    1.0860 H         1 MOL      0.056000
     16 H10        -5.4580   -7.8160    2.5610 H         1 MOL      0.071700
     17 H11        -3.8080   -8.1560    1.9650 H         1 MOL      0.071700
@<TRIPOS>BOND
     1    1    2 1   
     2    1    7 1   
     3    1    8 1   
     4    1    9 1   
     5    2    3 1   
     6    2   10 1   
     7    2   11 1   
     8    3    4 1   
     9    3   12 1   
    10    3   13 1   
    11    4    5 1   
    12    4   14 1   
    13    4   15 1   
    14    5    6 1   
    15    5   16 1   
    16    5   17 1   
@<TRIPOS>SUBSTRUCTURE
     1 TMP         1 TEMP              0 ****  ****    0 ROOT
