@<TRIPOS>MOLECULE
TMP
   22    23     1     0     0
SMALL
No Charge or Current Charge


@<TRIPOS>ATOM
      1 C1         -1.3270   -6.3390   -1.1210 C.ar      1 MOL     -0.127700
      2 C2         -0.7590   -5.6580   -2.1940 C.ar      1 MOL     -0.130800
      3 C3          0.3850   -4.8790   -2.0030 C.ar      1 MOL     -0.118600
      4 C4          0.9840   -4.7640   -0.7360 C.ar      1 MOL     -0.038000
      5 C5          0.3930   -5.4610    0.3330 C.ar      1 MOL     -0.118600
      6 C6         -0.7510   -6.2410    0.1420 C.ar      1 MOL     -0.130800
      7 C7          2.1920   -3.9410   -0.5340 C.ar      1 MOL     -0.038000
      8 C8          3.2990   -4.0510   -1.3950 C.ar      1 MOL     -0.118600
      9 C9          4.4430   -3.2720   -1.2040 C.ar      1 MOL     -0.130800
     10 C10         4.5030   -2.3660   -0.1490 C.ar      1 MOL     -0.127700
     11 C11         3.4190   -2.2390    0.7160 C.ar      1 MOL     -0.130800
     12 C12         2.2750   -3.0190    0.5250 C.ar      1 MOL     -0.118600
     13 H1         -2.2160   -6.9450   -1.2700 H         1 MOL      0.131300
     14 H2         -1.2060   -5.7300   -3.1820 H         1 MOL      0.131700
     15 H3          0.8000   -4.3500   -2.8600 H         1 MOL      0.134900
     16 H4          0.8250   -5.4120    1.3310 H         1 MOL      0.134900
     17 H5         -1.1900   -6.7730    0.9820 H         1 MOL      0.131700
     18 H6          3.2860   -4.7580   -2.2220 H         1 MOL      0.134800
     19 H7          5.2880   -3.3750   -1.8790 H         1 MOL      0.131700
     20 H8          5.3910   -1.7600   -0.0000 H         1 MOL      0.131300
     21 H9          3.4600   -1.5320    1.5390 H         1 MOL      0.131700
     22 H10         1.4400   -2.8900    1.2110 H         1 MOL      0.134900
@<TRIPOS>BOND
     1    1    2 ar  
     2    1    6 ar  
     3    1   13 1   
     4    2    3 ar  
     5    2   14 1   
     6    3    4 ar  
     7    3   15 1   
     8    4    5 ar  
     9    4    7 1   
    10    5    6 ar  
    11    5   16 1   
    12    6   17 1   
    13    7    8 ar  
    14    7   12 ar  
    15    8    9 ar  
    16    8   18 1   
    17    9   10 ar  
    18    9   19 1   
    19   10   11 ar  
    20   10   20 1   
    21   11   12 ar  
    22   11   21 1   
    23   12   22 1   
@<TRIPOS>SUBSTRUCTURE
     1 TMP         1 TEMP              0 ****  ****    0 ROOT
