@<TRIPOS>MOLECULE
di_n_propyl_ether
   21    20     0     0     0
SMALL
USER_CHARGES

@<TRIPOS>ATOM
      1 C1         -1.2014   -0.8990    2.8898 C.3       1 MOL        -0.0891
      2 C2          6.0775   -2.0271    3.3154 C.3       1 MOL        -0.0891
      3 C3          0.1100   -0.6530    3.6139 C.3       1 MOL        -0.0827
      4 C4          4.8248   -1.4002    3.9005 C.3       1 MOL        -0.0827
      5 C5          1.2749   -1.3494    2.9273 C.3       1 MOL         0.1324
      6 C6          3.5918   -1.7167    3.0680 C.3       1 MOL         0.1324
      7 O1          2.4629   -1.0899    3.6622 O.3       1 MOL        -0.4247
      8 H1         -1.4356   -1.9678    2.8554 H         1 MOL         0.0349
      9 H2         -2.0211   -0.3883    3.4047 H         1 MOL         0.0349
     10 H3         -1.1588   -0.5231    1.8627 H         1 MOL         0.0349
     11 H4          6.2648   -1.6567    2.3025 H         1 MOL         0.0349
     12 H5          6.9479   -1.7831    3.9324 H         1 MOL         0.0349
     13 H6          5.9869   -3.1171    3.2717 H         1 MOL         0.0349
     14 H7          0.0333   -1.0004    4.6512 H         1 MOL         0.0485
     15 H8          0.3074    0.4242    3.6712 H         1 MOL         0.0485
     16 H9          4.9512   -0.3133    3.9724 H         1 MOL         0.0485
     17 H10         4.6760   -1.7543    4.9277 H         1 MOL         0.0485
     18 H11         1.1169   -2.4321    2.8914 H         1 MOL         0.0250
     19 H12         1.4076   -0.9751    1.9072 H         1 MOL         0.0250
     20 H13         3.7024   -1.3392    2.0465 H         1 MOL         0.0250
     21 H14         3.4117   -2.7959    3.0311 H         1 MOL         0.0250
@<TRIPOS>BOND
     1    1    3 1
     2    2    4 1
     3    3    5 1
     4    4    6 1
     5    5    7 1
     6    6    7 1
     7    1    8 1
     8    1    9 1
     9    1   10 1
    10    2   11 1
    11    2   12 1
    12    2   13 1
    13    3   14 1
    14    3   15 1
    15    4   16 1
    16    4   17 1
    17    5   18 1
    18    5   19 1
    19    6   20 1
    20    6   21 1
