@<TRIPOS>MOLECULE
ethanethiol
    9     8     0     0     0
SMALL
USER_CHARGES

@<TRIPOS>ATOM
      1 C1          0.4412   -0.3496    0.9395 C.3       1 MOL        -0.0849
      2 C2          1.8518   -0.8681    0.7340 C.3       1 MOL         0.0154
      3 S1          2.9258    0.4446    0.0921 S.3       1 MOL        -0.3842
      4 H1          0.4164    0.4722    1.6632 H         1 MOL         0.0473
      5 H2          0.0000    0.0000    0.0000 H         1 MOL         0.0473
      6 H3         -0.1973   -1.1505    1.3271 H         1 MOL         0.0473
      7 H4          1.8501   -1.7008    0.0240 H         1 MOL         0.0569
      8 H5          2.2645   -1.2294    1.6807 H         1 MOL         0.0569
      9 H6          3.5904   -0.3266   -0.7793 H         1 MOL         0.1981
@<TRIPOS>BOND
     1    1    2 1
     2    2    3 1
     3    1    4 1
     4    1    5 1
     5    1    6 1
     6    2    7 1
     7    2    8 1
     8    3    9 1
