@<TRIPOS>MOLECULE
diiodomethane
    5     4     0     0     0
SMALL
USER_CHARGES

@<TRIPOS>ATOM
      1 C1         -0.4431    0.9217   -0.3896 C.3       1 MOL         0.1567
      2 I1         -1.2437    0.6048   -2.3271 I         1 MOL        -0.1801
      3 I2         -2.0484    1.5570    0.8416 I         1 MOL        -0.1801
      4 H1          0.3450    1.6806   -0.4174 H         1 MOL         0.1017
      5 H2          0.0000   -0.0000    0.0000 H         1 MOL         0.1017
@<TRIPOS>BOND
     1    1    2 1
     2    1    3 1
     3    1    4 1
     4    1    5 1
