@<TRIPOS>MOLECULE
bromomethane
    5     4     0     0     0
SMALL
USER_CHARGES

@<TRIPOS>ATOM
      1 C1         -0.5124    0.5189   -0.8114 C.3       1 MOL        -0.0371
      2 Br1        -1.9429    1.5709   -0.0429 Br        1 MOL        -0.1666
      3 H1          0.1674    1.1981   -1.3279 H         1 MOL         0.0679
      4 H2          0.0000   -0.0000    0.0000 H         1 MOL         0.0679
      5 H3         -0.9538   -0.1932   -1.5102 H         1 MOL         0.0679
@<TRIPOS>BOND
     1    1    2 1
     2    1    3 1
     3    1    4 1
     4    1    5 1
