@<TRIPOS>MOLECULE
1_iodoheptane
   23    22     0     0     0
SMALL
USER_CHARGES

@<TRIPOS>ATOM
      1 C1         -0.6509   -1.2104   -2.1828 C.3       1 MOL        -0.0899
      2 C2          0.5393   -0.2941   -1.9438 C.3       1 MOL        -0.0778
      3 C3          0.3571    1.1092   -2.5260 C.3       1 MOL        -0.0770
      4 C4          1.5847    2.0050   -2.3459 C.3       1 MOL        -0.0768
      5 C5          1.3382    3.4035   -2.9167 C.3       1 MOL        -0.0789
      6 C6          2.5754    4.2918   -2.7676 C.3       1 MOL        -0.0737
      7 C7          2.3113    5.6987   -3.3026 C.3       1 MOL         0.0721
      8 I1          4.0586    6.9171   -3.1166 I         1 MOL        -0.2564
      9 H1         -1.5368   -0.8672   -1.6409 H         1 MOL         0.0321
     10 H2         -0.8960   -1.2672   -3.2481 H         1 MOL         0.0321
     11 H3         -0.4211   -2.2223   -1.8338 H         1 MOL         0.0321
     12 H4          1.4254   -0.7479   -2.4036 H         1 MOL         0.0376
     13 H5          0.7392   -0.2289   -0.8679 H         1 MOL         0.0376
     14 H6         -0.5191    1.5855   -2.0695 H         1 MOL         0.0391
     15 H7          0.1401    1.0097   -3.5967 H         1 MOL         0.0391
     16 H8          2.4480    1.5509   -2.8471 H         1 MOL         0.0399
     17 H9          1.8336    2.0913   -1.2822 H         1 MOL         0.0399
     18 H10         0.4891    3.8663   -2.3990 H         1 MOL         0.0420
     19 H11         1.0680    3.3257   -3.9769 H         1 MOL         0.0420
     20 H12         3.4165    3.8375   -3.3062 H         1 MOL         0.0519
     21 H13         2.8626    4.3408   -1.7098 H         1 MOL         0.0519
     22 H14         1.4860    6.1621   -2.7505 H         1 MOL         0.0706
     23 H15         2.0135    5.6506   -4.3560 H         1 MOL         0.0706
@<TRIPOS>BOND
     1    1    2 1
     2    2    3 1
     3    3    4 1
     4    4    5 1
     5    5    6 1
     6    6    7 1
     7    7    8 1
     8    1    9 1
     9    1   10 1
    10    1   11 1
    11    2   12 1
    12    2   13 1
    13    3   14 1
    14    3   15 1
    15    4   16 1
    16    4   17 1
    17    5   18 1
    18    5   19 1
    19    6   20 1
    20    6   21 1
    21    7   22 1
    22    7   23 1
