@<TRIPOS>MOLECULE
n_hexylamine
   22    21     0     0     0
SMALL
USER_CHARGES

@<TRIPOS>ATOM
      1 C1          1.1229   -0.0646   -0.2433 C.3       1 MOL        -0.0899
      2 C2          1.6713    1.3413   -0.4294 C.3       1 MOL        -0.0778
      3 C3          0.9806    2.0634   -1.5873 C.3       1 MOL        -0.0774
      4 C4          1.5594    3.4656   -1.7892 C.3       1 MOL        -0.0743
      5 C5          0.8547    4.2624   -2.8917 C.3       1 MOL        -0.1199
      6 C6          1.4521    5.6523   -3.1083 C.3       1 MOL         0.1517
      7 N1          0.7363    6.3467   -4.1734 N.3       1 MOL        -0.9049
      8 H1          1.6291   -0.5615    0.5902 H         1 MOL         0.0320
      9 H2          0.0506   -0.0418   -0.0246 H         1 MOL         0.0320
     10 H3          1.2777   -0.6683   -1.1432 H         1 MOL         0.0320
     11 H4          1.5318    1.9069    0.4992 H         1 MOL         0.0374
     12 H5          2.7500    1.2849   -0.6164 H         1 MOL         0.0374
     13 H6         -0.0950    2.1349   -1.3856 H         1 MOL         0.0392
     14 H7          1.1016    1.4712   -2.5011 H         1 MOL         0.0392
     15 H8          2.6308    3.3958   -2.0134 H         1 MOL         0.0386
     16 H9          1.4694    4.0280   -0.8514 H         1 MOL         0.0386
     17 H10        -0.2027    4.3630   -2.6141 H         1 MOL         0.0391
     18 H11         0.8810    3.6915   -3.8285 H         1 MOL         0.0391
     19 H12         1.3805    6.2413   -2.1879 H         1 MOL         0.0503
     20 H13         2.5094    5.5827   -3.3816 H         1 MOL         0.0503
     21 H14        -0.2347    6.0446   -4.1720 H         1 MOL         0.3436
     22 H15         1.1245    6.0672   -5.0707 H         1 MOL         0.3436
@<TRIPOS>BOND
     1    1    2 1
     2    2    3 1
     3    3    4 1
     4    4    5 1
     5    5    6 1
     6    6    7 1
     7    1    8 1
     8    1    9 1
     9    1   10 1
    10    2   11 1
    11    2   12 1
    12    3   13 1
    13    3   14 1
    14    4   15 1
    15    4   16 1
    16    5   17 1
    17    5   18 1
    18    6   19 1
    19    6   20 1
    20    7   21 1
    21    7   22 1
