@<TRIPOS>MOLECULE
1_bromopropane
   11    10     0     0     0
SMALL
USER_CHARGES

@<TRIPOS>ATOM
      1 C1         -0.5853   -0.6392    0.6688 C.3       1 MOL        -0.0947
      2 C2         -0.0407   -0.5870    2.0871 C.3       1 MOL        -0.0782
      3 C3          1.3992   -1.0649    2.1404 C.3       1 MOL        -0.0058
      4 Br1         2.0720   -0.9284    3.9620 Br        1 MOL        -0.1817
      5 H1         -1.6231   -0.2922    0.6480 H         1 MOL         0.0384
      6 H2          0.0000    0.0000    0.0000 H         1 MOL         0.0384
      7 H3         -0.5610   -1.6611    0.2768 H         1 MOL         0.0384
      8 H4         -0.6711   -1.2066    2.7365 H         1 MOL         0.0522
      9 H5         -0.1142    0.4411    2.4619 H         1 MOL         0.0522
     10 H6          2.0575   -0.4531    1.5175 H         1 MOL         0.0704
     11 H7          1.4935   -2.1149    1.8502 H         1 MOL         0.0704
@<TRIPOS>BOND
     1    1    2 1
     2    2    3 1
     3    3    4 1
     4    1    5 1
     5    1    6 1
     6    1    7 1
     7    2    8 1
     8    2    9 1
     9    3   10 1
    10    3   11 1
