@<TRIPOS>MOLECULE
12_dibromoethane
    8     7     0     0     0
SMALL
USER_CHARGES

@<TRIPOS>ATOM
      1 C1          0.6188   -0.7312    0.5282 C.3       1 MOL        -0.0147
      2 C2          1.1142   -1.8289   -0.3811 C.3       1 MOL        -0.0147
      3 Br1        -0.4978   -1.5000    1.9242 Br        1 MOL        -0.1570
      4 Br2         2.1855   -1.0543   -1.8093 Br        1 MOL        -0.1570
      5 H1          1.4361   -0.2087    1.0339 H         1 MOL         0.0858
      6 H2          0.0000   -0.0000    0.0000 H         1 MOL         0.0858
      7 H3          0.2958   -2.3714   -0.8633 H         1 MOL         0.0858
      8 H4          1.7580   -2.5432    0.1403 H         1 MOL         0.0858
@<TRIPOS>BOND
     1    1    2 1
     2    1    3 1
     3    2    4 1
     4    1    5 1
     5    1    6 1
     6    2    7 1
     7    2    8 1
