@<TRIPOS>MOLECULE
methanol@0
    6     5     0     0     0
SMALL
USER_CHARGES

@<TRIPOS>ATOM
      1 C1          0.2832    0.7683    0.7237 C.3       1 MOL         0.1201
      2 O1         -0.3115    2.0010    0.3618 O.3       1 MOL        -0.6003
      3 H1          1.3700    0.8797    0.7463 H         1 MOL         0.0277
      4 H2         -0.0001   -0.0002    0.0003 H         1 MOL         0.0277
      5 H3         -0.0720    0.4801    1.7159 H         1 MOL         0.0277
      6 H4          0.0222    2.2307   -0.5221 H         1 MOL         0.3971
@<TRIPOS>BOND
     1    1    2 1
     2    1    3 1
     3    1    4 1
     4    1    5 1
     5    2    6 1
