@<TRIPOS>MOLECULE
tetrafluoromethane
    5     4     0     0     0
SMALL
USER_CHARGES

@<TRIPOS>ATOM
      1 C1         -0.9413   -0.8517   -0.4400 C.3       1 MOL         0.8849
      2 F1          0.0000    0.0000    0.0000 F         1 MOL        -0.2212
      3 F2         -0.4521   -2.1029   -0.4320 F         1 MOL        -0.2212
      4 F3         -1.2972   -0.5180   -1.6919 F         1 MOL        -0.2212
      5 F4         -2.0159   -0.7858    0.3638 F         1 MOL        -0.2212
@<TRIPOS>BOND
     1    1    2 1
     2    1    3 1
     3    1    4 1
     4    1    5 1
