@<TRIPOS>MOLECULE
TMP
   13    13     1     0     0
SMALL
No Charge or Current Charge


@<TRIPOS>ATOM
      1 C1         26.6760    5.5420    3.3280 C.ar      1 MOL     -0.156600
      2 C2         27.4690    6.6640    3.5940 C.ar      1 MOL      0.122900
      3 C3         25.9730    4.9200    4.3660 C.ar      1 MOL     -0.097000
      4 C4         27.5590    7.1650    4.8980 C.ar      1 MOL     -0.213300
      5 O5         28.1580    7.2730    2.5770 O.3       1 MOL     -0.498700
      6 C6         26.0620    5.4200    5.6700 C.ar      1 MOL     -0.165500
      7 C7         26.8560    6.5420    5.9360 C.ar      1 MOL     -0.091600
      8 H1         26.6080    5.1630    2.3380 H         1 MOL      0.149700
      9 H2         25.3710    4.0680    4.1640 H         1 MOL      0.133900
     10 H3         28.1610    8.0150    5.1000 H         1 MOL      0.132600
     11 H4         25.5290    4.9480    6.4570 H         1 MOL      0.133300
     12 H5         26.9240    6.9220    6.9250 H         1 MOL      0.132100
     13 H6         29.0750    7.4850    2.8810 H         1 MOL      0.418300
@<TRIPOS>BOND
     1    1    2 ar  
     2    1    3 ar  
     3    1    8 1   
     4    2    4 ar  
     5    2    5 1   
     6    3    6 ar  
     7    3    9 1   
     8    4    7 ar  
     9    4   10 1   
    10    5   13 1   
    11    6    7 ar  
    12    6   11 1   
    13    7   12 1   
@<TRIPOS>SUBSTRUCTURE
     1 TMP         1 TEMP              0 ****  ****    0 ROOT
