@<TRIPOS>MOLECULE
n_heptylamine
   25    24     0     0     0
SMALL
USER_CHARGES

@<TRIPOS>ATOM
      1 C1          0.6451   -0.7072    0.1067 C.3       1 MOL        -0.0898
      2 C2          0.1466   -2.0967   -0.2574 C.3       1 MOL        -0.0779
      3 C3         -0.2982   -2.1672   -1.7189 C.3       1 MOL        -0.0765
      4 C4         -0.8290   -3.5588   -2.0696 C.3       1 MOL        -0.0768
      5 C5         -1.3010   -3.6830   -3.5212 C.3       1 MOL        -0.0754
      6 C6         -1.7630   -5.0943   -3.8931 C.3       1 MOL        -0.1204
      7 C7         -2.2538   -5.1485   -5.3398 C.3       1 MOL         0.1521
      8 N1         -2.6813   -6.5006   -5.6792 N.3       1 MOL        -0.9048
      9 H1          1.5038   -0.4244   -0.5108 H         1 MOL         0.0318
     10 H2         -0.1411    0.0414   -0.0344 H         1 MOL         0.0318
     11 H3          0.9569   -0.6790    1.1555 H         1 MOL         0.0318
     12 H4          0.9464   -2.8239   -0.0754 H         1 MOL         0.0376
     13 H5         -0.6899   -2.3624    0.3995 H         1 MOL         0.0376
     14 H6          0.5474   -1.9204   -2.3721 H         1 MOL         0.0381
     15 H7         -1.0745   -1.4137   -1.8928 H         1 MOL         0.0381
     16 H8         -0.0338   -4.2967   -1.9055 H         1 MOL         0.0392
     17 H9         -1.6498   -3.8242   -1.3921 H         1 MOL         0.0392
     18 H10        -2.1107   -2.9670   -3.7071 H         1 MOL         0.0382
     19 H11        -0.4688   -3.3951   -4.1759 H         1 MOL         0.0382
     20 H12        -0.9330   -5.7986   -3.7554 H         1 MOL         0.0402
     21 H13        -2.5724   -5.4111   -3.2251 H         1 MOL         0.0402
     22 H14        -3.0966   -4.4626   -5.4773 H         1 MOL         0.0501
     23 H15        -1.4557   -4.8384   -6.0233 H         1 MOL         0.0501
     24 H16        -3.2057   -6.8893   -4.8991 H         1 MOL         0.3437
     25 H17        -1.8602   -7.0894   -5.7964 H         1 MOL         0.3437
@<TRIPOS>BOND
     1    1    2 1
     2    2    3 1
     3    3    4 1
     4    4    5 1
     5    5    6 1
     6    6    7 1
     7    7    8 1
     8    1    9 1
     9    1   10 1
    10    1   11 1
    11    2   12 1
    12    2   13 1
    13    3   14 1
    14    3   15 1
    15    4   16 1
    16    4   17 1
    17    5   18 1
    18    5   19 1
    19    6   20 1
    20    6   21 1
    21    7   22 1
    22    7   23 1
    23    8   24 1
    24    8   25 1
