@<TRIPOS>MOLECULE
112_trichloroethane
    8     7     0     0     0
SMALL
USER_CHARGES

@<TRIPOS>ATOM
      1 C1         -0.3098   -0.9813    0.3742 C.3       1 MOL         0.0130
      2 C2          0.3109   -2.0958   -0.4640 C.3       1 MOL         0.1388
      3 Cl1        -2.0927   -1.0020    0.3817 Cl        1 MOL        -0.1541
      4 Cl2        -0.1403   -1.9651   -2.1822 Cl        1 MOL        -0.1408
      5 Cl3        -0.1100   -3.7101    0.1605 Cl        1 MOL        -0.1408
      6 H1          0.0182   -1.0557    1.4163 H         1 MOL         0.0886
      7 H2         -0.0000    0.0000    0.0000 H         1 MOL         0.0886
      8 H3          1.4010   -2.0167   -0.4190 H         1 MOL         0.1066
@<TRIPOS>BOND
     1    1    2 1
     2    1    3 1
     3    2    4 1
     4    2    5 1
     5    1    6 1
     6    1    7 1
     7    2    8 1
