@<TRIPOS>MOLECULE
pentan_1_ol
   18    17     0     0     0
SMALL
USER_CHARGES

@<TRIPOS>ATOM
      1 C1          0.8186   -0.3802    0.6691 C.3       1 MOL        -0.0899
      2 C2          1.6185   -1.4417   -0.0691 C.3       1 MOL        -0.0779
      3 C3          2.2938   -0.8687   -1.3148 C.3       1 MOL        -0.0748
      4 C4          3.1237   -1.9294   -2.0346 C.3       1 MOL        -0.1124
      5 C5          3.8336   -1.3564   -3.2530 C.3       1 MOL         0.1298
      6 O1          4.5965   -2.3862   -3.8665 O.3       1 MOL        -0.6007
      7 H1          1.4639    0.4427    0.9930 H         1 MOL         0.0321
      8 H2          0.0303    0.0315    0.0309 H         1 MOL         0.0321
      9 H3          0.3462   -0.8110    1.5574 H         1 MOL         0.0321
     10 H4          0.9505   -2.2636   -0.3519 H         1 MOL         0.0380
     11 H5          2.3753   -1.8563    0.6070 H         1 MOL         0.0380
     12 H6          1.5317   -0.4729   -1.9971 H         1 MOL         0.0427
     13 H7          2.9390   -0.0288   -1.0292 H         1 MOL         0.0427
     14 H8          2.4843   -2.7645   -2.3467 H         1 MOL         0.0448
     15 H9          3.8659   -2.3597   -1.3509 H         1 MOL         0.0448
     16 H10         4.5106   -0.5456   -2.9657 H         1 MOL         0.0408
     17 H11         3.1116   -0.9763   -3.9827 H         1 MOL         0.0408
     18 H12         4.9126   -2.9641   -3.1531 H         1 MOL         0.3968
@<TRIPOS>BOND
     1    1    2 1
     2    2    3 1
     3    3    4 1
     4    4    5 1
     5    5    6 1
     6    1    7 1
     7    1    8 1
     8    1    9 1
     9    2   10 1
    10    2   11 1
    11    3   12 1
    12    3   13 1
    13    4   14 1
    14    4   15 1
    15    5   16 1
    16    5   17 1
    17    6   18 1
