@<TRIPOS>MOLECULE
bromoethane
    8     7     0     0     0
SMALL
USER_CHARGES

@<TRIPOS>ATOM
      1 C1          0.0125   -0.7247    0.8210 C.3       1 MOL        -0.0940
      2 C2          1.1399   -0.4427    1.7865 C.3       1 MOL        -0.0057
      3 Br1         2.8461   -0.5455    0.8594 Br        1 MOL        -0.1818
      4 H1         -0.9510   -0.6676    1.3370 H         1 MOL         0.0471
      5 H2          0.0000   -0.0000    0.0000 H         1 MOL         0.0471
      6 H3          0.1031   -1.7247    0.3836 H         1 MOL         0.0471
      7 H4          1.1722   -1.1779    2.5944 H         1 MOL         0.0700
      8 H5          1.0673    0.5629    2.2082 H         1 MOL         0.0700
@<TRIPOS>BOND
     1    1    2 1
     2    2    3 1
     3    1    4 1
     4    1    5 1
     5    1    6 1
     6    2    7 1
     7    2    8 1
