@<TRIPOS>MOLECULE
chlorofluoromethane
    5     4     0     0     0
SMALL
USER_CHARGES

@<TRIPOS>ATOM
      1 C1         -0.5233    0.9585    0.0273 C.3       1 MOL         0.2789
      2 F1         -1.3057    1.0628   -1.0762 F         1 MOL        -0.2202
      3 Cl1        -1.5247    1.0429    1.4780 Cl        1 MOL        -0.2037
      4 H1          0.1939    1.7825    0.0308 H         1 MOL         0.0725
      5 H2          0.0000    0.0000   -0.0000 H         1 MOL         0.0725
@<TRIPOS>BOND
     1    1    2 1
     2    1    3 1
     3    1    4 1
     4    1    5 1
