@<TRIPOS>MOLECULE
iodomethane
    5     4     0     0     0
SMALL
USER_CHARGES

@<TRIPOS>ATOM
      1 C1         -0.6296    0.7327   -0.5136 C.3       1 MOL         0.0396
      2 I1         -1.8760    1.7539    0.8514 I         1 MOL        -0.2438
      3 H1          0.0296    1.4277   -1.0423 H         1 MOL         0.0681
      4 H2          0.0000   -0.0000    0.0000 H         1 MOL         0.0681
      5 H3         -1.2215    0.1989   -1.2630 H         1 MOL         0.0681
@<TRIPOS>BOND
     1    1    2 1
     2    1    3 1
     3    1    4 1
     4    1    5 1
