@<TRIPOS>MOLECULE
ethylamine
   10     9     0     0     0
SMALL
USER_CHARGES

@<TRIPOS>ATOM
      1 C1         -0.2605    0.7905    0.7119 C.3       1 MOL        -0.1347
      2 C2          0.0815    0.3848    2.1354 C.3       1 MOL         0.1506
      3 N1          1.5069    0.1164    2.2786 N.3       1 MOL        -0.9060
      4 H1          0.2716    1.7026    0.4212 H         1 MOL         0.0349
      5 H2          0.0000    0.0000   -0.0000 H         1 MOL         0.0349
      6 H3         -1.3344    0.9839    0.6226 H         1 MOL         0.0349
      7 H4         -0.4834   -0.5110    2.4131 H         1 MOL         0.0493
      8 H5         -0.2063    1.1819    2.8287 H         1 MOL         0.0493
      9 H6          2.0104    0.5793    1.5253 H         1 MOL         0.3435
     10 H7          1.6713   -0.8810    2.1640 H         1 MOL         0.3435
@<TRIPOS>BOND
     1    1    2 1
     2    2    3 1
     3    1    4 1
     4    1    5 1
     5    1    6 1
     6    2    7 1
     7    2    8 1
     8    3    9 1
     9    3   10 1
