@<TRIPOS>MOLECULE
1_chlorohexane
   20    19     0     0     0
SMALL
USER_CHARGES

@<TRIPOS>ATOM
      1 C1          0.6567   -0.6720    0.5625 C.3       1 MOL        -0.0901
      2 C2          0.0265   -1.0251    1.9002 C.3       1 MOL        -0.0776
      3 C3          0.9415   -1.9260    2.7295 C.3       1 MOL        -0.0770
      4 C4          0.2900   -2.3065    4.0612 C.3       1 MOL        -0.0793
      5 C5          1.2206   -3.1861    4.9017 C.3       1 MOL        -0.0877
      6 C6          0.5873   -3.6597    6.2060 C.3       1 MOL         0.0417
      7 Cl1         0.1397   -2.3014    7.2633 Cl        1 MOL        -0.2023
      8 H1          1.6025   -0.1388    0.7029 H         1 MOL         0.0322
      9 H2         -0.0140   -0.0274   -0.0143 H         1 MOL         0.0322
     10 H3          0.8538   -1.5724   -0.0283 H         1 MOL         0.0322
     11 H4         -0.1873   -0.1021    2.4517 H         1 MOL         0.0385
     12 H5         -0.9317   -1.5278    1.7248 H         1 MOL         0.0385
     13 H6          1.8911   -1.4106    2.9194 H         1 MOL         0.0392
     14 H7          1.1747   -2.8346    2.1610 H         1 MOL         0.0392
     15 H8         -0.6472   -2.8433    3.8702 H         1 MOL         0.0447
     16 H9          0.0341   -1.3930    4.6097 H         1 MOL         0.0447
     17 H10         2.1522   -2.6468    5.1136 H         1 MOL         0.0531
     18 H11         1.4963   -4.0716    4.3156 H         1 MOL         0.0531
     19 H12        -0.3138   -4.2505    6.0162 H         1 MOL         0.0625
     20 H13         1.2941   -4.2829    6.7620 H         1 MOL         0.0625
@<TRIPOS>BOND
     1    1    2 1
     2    2    3 1
     3    3    4 1
     4    4    5 1
     5    5    6 1
     6    6    7 1
     7    1    8 1
     8    1    9 1
     9    1   10 1
    10    2   11 1
    11    2   12 1
    12    3   13 1
    13    3   14 1
    14    4   15 1
    15    4   16 1
    16    5   17 1
    17    5   18 1
    18    6   19 1
    19    6   20 1
