@<TRIPOS>MOLECULE
dichloromethane
    5     4     0     0     0
SMALL
USER_CHARGES

@<TRIPOS>ATOM
      1 C1         -0.3567    0.9864   -0.3064 C.3       1 MOL         0.1252
      2 Cl1        -1.0409    0.8711   -1.9317 Cl        1 MOL        -0.1510
      3 Cl2        -1.5643    1.5476    0.8554 Cl        1 MOL        -0.1510
      4 H1          0.4777    1.6918   -0.3209 H         1 MOL         0.0884
      5 H2          0.0000   -0.0000    0.0000 H         1 MOL         0.0884
@<TRIPOS>BOND
     1    1    2 1
     2    1    3 1
     3    1    4 1
     4    1    5 1
