@<TRIPOS>MOLECULE
LEU
   14    13     1     0     0
SMALL
No Charge or Current Charge


@<TRIPOS>ATOM
      1 C1         -0.3000    0.2800   -1.4500 C.3       1 MOL     -0.089600
      2 H1          0.2800   -0.5200   -1.9200 H         1 MOL      0.033200
      3 H2         -1.3600    0.1900   -1.6700 H         1 MOL      0.032400
      4 H3         -0.0200    1.2700   -1.7900 H         1 MOL      0.032600
      5 C4         -0.0800    0.2800    0.0600 C.3       1 MOL     -0.070200
      6 H5         -0.5400    1.1400    0.5400 H         1 MOL      0.044300
      7 C3         -0.9100   -0.8600    0.6500 C.3       1 MOL     -0.089600
      8 H6         -0.9800   -1.0200    1.7200 H         1 MOL      0.032400
      9 H7         -0.7600   -1.8800    0.2700 H         1 MOL      0.033200
     10 H8         -1.8700   -0.5900    0.2100 H         1 MOL      0.032500
     11 C2          1.3800    0.3700    0.5100 C.3       1 MOL     -0.089600
     12 H9          1.4900   -0.3400    1.3300 H         1 MOL      0.032600
     13 H10         1.7200    1.4000    0.6400 H         1 MOL      0.032400
     14 H4          2.0700   -0.1500   -0.1500 H         1 MOL      0.033200
@<TRIPOS>BOND
     1    1    2 1   
     2    1    3 1   
     3    1    4 1   
     4    1    5 1   
     5    5    6 1   
     6    5    7 1   
     7    5   11 1   
     8    7    8 1   
     9    7    9 1   
    10    7   10 1   
    11   11   12 1   
    12   11   13 1   
    13   11   14 1   
@<TRIPOS>SUBSTRUCTURE
     1 LEU         1 TEMP              0 ****  ****    0 ROOT
