@<TRIPOS>MOLECULE
res
   12    11     1     0     0
SMALL
No Charge or Current Charge


@<TRIPOS>ATOM
      1 H21        -1.0220   -0.3780    0.0150 H         1 MOL      0.067000
      2 C2         -0.0170   -0.0010   -0.0000 C.3       1 MOL      0.127000
      3 C1         -0.0170    1.5240   -0.0030 C.3       1 MOL      0.578500
      4 F1          1.2530    2.0400    0.0110 F         1 MOL     -0.227600
      5 F2         -0.6470    2.0200   -1.0950 F         1 MOL     -0.237900
      6 F3         -0.6610    1.9860    1.1040 F         1 MOL     -0.248200
      7 C3          0.7230   -0.5620   -1.2130 C.3       1 MOL     -0.101600
      8 H31         0.2580   -0.2090   -2.1420 H         1 MOL      0.058500
      9 H32         0.7380   -1.6380   -1.2020 H         1 MOL      0.066500
     10 H33         1.7790   -0.2260   -1.2360 H         1 MOL      0.069700
     11 O1          0.6450   -0.4970    1.1720 O.3       1 MOL     -0.570700
     12 H11         0.1880   -0.1680    1.9520 H         1 MOL      0.418800
@<TRIPOS>BOND
     1    1    2 1   
     2    2    3 1   
     3    2    7 1   
     4    2   11 1   
     5    3    4 1   
     6    3    5 1   
     7    3    6 1   
     8    7    8 1   
     9    7    9 1   
    10    7   10 1   
    11   11   12 1   
@<TRIPOS>SUBSTRUCTURE
     1 res         1 TEMP              0 ****  ****    0 ROOT
