@<TRIPOS>MOLECULE
buta-1,3-diene
   10     9     0     0     0
SMALL
USER_CHARGES

@<TRIPOS>ATOM
      1 C1         -1.0635   -0.9856   -0.6119 C.2       1 MOL        -0.2089
      2 C2         -2.2248   -1.9321    2.7408 C.2       1 MOL        -0.2088
      3 C3         -1.7559   -1.5851    0.3632 C.2       1 MOL        -0.1370
      4 C4         -1.5320   -1.3323    1.7662 C.2       1 MOL        -0.1370
      5 H1         -1.2497   -1.1918   -1.6608 H         1 MOL         0.1122
      6 H2         -0.2874   -0.2674   -0.3689 H         1 MOL         0.1122
      7 H3         -2.0388   -1.7261    3.7898 H         1 MOL         0.1122
      8 H4         -3.0010   -2.6500    2.4977 H         1 MOL         0.1122
      9 H5         -2.5287   -2.2995    0.0923 H         1 MOL         0.1215
     10 H6         -0.7600   -0.6170    2.0371 H         1 MOL         0.1215
@<TRIPOS>BOND
     1    1    3 2
     2    2    4 2
     3    3    4 1
     4    1    5 1
     5    1    6 1
     6    2    7 1
     7    2    8 1
     8    3    9 1
     9    4   10 1
