@<TRIPOS>MOLECULE
propyl butanoate
   23    22     0     0     0
SMALL
USER_CHARGES

@<TRIPOS>ATOM
      1 C1          2.6749   -0.7723    3.1243 C.2       1 MOL         0.6444
      2 C2         -0.3781   -0.6942    0.7529 C.3       1 MOL        -0.0944
      3 C3          7.2661   -1.2978    4.6838 C.3       1 MOL        -0.0936
      4 C4          1.8852   -0.8881    1.8405 C.3       1 MOL        -0.1430
      5 C5          0.4001   -0.6068    2.0556 C.3       1 MOL        -0.0796
      6 C6          6.2755   -1.3342    3.5341 C.3       1 MOL        -0.1021
      7 C7          4.8658   -0.9912    3.9907 C.3       1 MOL         0.1497
      8 O1          2.2091   -0.4717    4.2148 O.2       1 MOL        -0.5002
      9 O2          3.9853   -1.0584    2.8643 O.3       1 MOL        -0.4800
     10 H1          0.0240    0.0152    0.0227 H         1 MOL         0.0367
     11 H2         -0.3119   -1.6988    0.3229 H         1 MOL         0.0367
     12 H3         -1.4351   -0.4565    0.9109 H         1 MOL         0.0367
     13 H4          7.2764   -0.3128    5.1614 H         1 MOL         0.0371
     14 H5          6.9957   -2.0397    5.4417 H         1 MOL         0.0371
     15 H6          8.2794   -1.5218    4.3357 H         1 MOL         0.0371
     16 H7          2.2964   -0.1716    1.1205 H         1 MOL         0.0782
     17 H8          2.0160   -1.9032    1.4493 H         1 MOL         0.0782
     18 H9         -0.0159   -1.3233    2.7741 H         1 MOL         0.0556
     19 H10         0.2672    0.3908    2.4908 H         1 MOL         0.0556
     20 H11         6.2803   -2.3277    3.0699 H         1 MOL         0.0499
     21 H12         6.5888   -0.6343    2.7502 H         1 MOL         0.0499
     22 H13         4.5169   -1.7002    4.7484 H         1 MOL         0.0548
     23 H14         4.8247    0.0212    4.4051 H         1 MOL         0.0548
@<TRIPOS>BOND
     1    1    4 1
     2    1    8 2
     3    1    9 1
     4    2    5 1
     5    3    6 1
     6    4    5 1
     7    6    7 1
     8    7    9 1
     9    2   10 1
    10    2   11 1
    11    2   12 1
    12    3   13 1
    13    3   14 1
    14    3   15 1
    15    4   16 1
    16    4   17 1
    17    5   18 1
    18    5   19 1
    19    6   20 1
    20    6   21 1
    21    7   22 1
    22    7   23 1
