@<TRIPOS>MOLECULE
3-methyl-1H-indole
   19    20     0     0     0
SMALL
USER_CHARGES

@<TRIPOS>ATOM
      1 C1         -0.7036    1.3640    1.5041 C.ar      1 MOL        -0.1597
      2 C2         -0.7671    0.1975    0.7446 C.ar      1 MOL        -0.1114
      3 C3         -1.6773    1.6439    2.4698 C.ar      1 MOL        -0.0812
      4 C4         -1.8022   -0.7245    0.9247 C.ar      1 MOL        -0.1476
      5 C5         -4.5471   -0.4724    3.2738 C.2       1 MOL        -0.0014
      6 C6         -2.7304    0.7292    2.6692 C.ar      1 MOL        -0.0896
      7 C7         -3.8586    0.6897    3.5356 C.2       1 MOL        -0.1326
      8 C8         -2.7685   -0.4315    1.8936 C.ar      1 MOL         0.0803
      9 C9         -4.2341    1.7076    4.5379 C.3       1 MOL        -0.0247
     10 N1         -3.8818   -1.1421    2.2822 N.pl3     1 MOL        -0.5855
     11 H1          0.1112    2.0654    1.3462 H         1 MOL         0.1282
     12 H2         -0.0003    0.0001   -0.0001 H         1 MOL         0.1285
     13 H3         -1.6132    2.5572    3.0545 H         1 MOL         0.1323
     14 H4         -1.8514   -1.6318    0.3322 H         1 MOL         0.1298
     15 H5         -5.4494   -0.8842    3.7045 H         1 MOL         0.1641
     16 H6         -3.7750    1.4893    5.5156 H         1 MOL         0.0395
     17 H7         -3.9174    2.7202    4.2366 H         1 MOL         0.0395
     18 H8         -5.3263    1.7599    4.6838 H         1 MOL         0.0395
     19 H9         -4.1662   -2.0297    1.8914 H         1 MOL         0.4521
@<TRIPOS>BOND
     1    1    2 ar
     2    1    3 ar
     3    2    4 ar
     4    3    6 ar
     5    4    8 ar
     6    5    7 2
     7    5   10 1
     8    6    7 1
     9    6    8 ar
    10    7    9 1
    11    8   10 1
    12    1   11 1
    13    2   12 1
    14    3   13 1
    15    4   14 1
    16    5   15 1
    17    9   16 1
    18    9   17 1
    19    9   18 1
    20   10   19 1
