@<TRIPOS>MOLECULE
chloroethane
    8     7     0     0     0
SMALL
USER_CHARGES

@<TRIPOS>ATOM
      1 C1          0.1543   -0.7247    0.8062 C.3       1 MOL        -0.1068
      2 C2          1.3672   -0.3680    1.6395 C.3       1 MOL         0.0383
      3 Cl1         2.8321   -0.3570    0.6342 Cl        1 MOL        -0.2025
      4 H1          0.0170    0.0099    0.0066 H         1 MOL         0.0487
      5 H2          0.2678   -1.7101    0.3424 H         1 MOL         0.0487
      6 H3         -0.7560   -0.7343    1.4146 H         1 MOL         0.0487
      7 H4          1.5144   -1.0958    2.4424 H         1 MOL         0.0624
      8 H5          1.2550    0.6252    2.0832 H         1 MOL         0.0624
@<TRIPOS>BOND
     1    1    2 1
     2    2    3 1
     3    1    4 1
     4    1    5 1
     5    1    6 1
     6    2    7 1
     7    2    8 1
