@<TRIPOS>MOLECULE
teflurane
    8     7     1     0     0
SMALL
No Charge or Current Charge


@<TRIPOS>ATOM
      1 C1         -0.0000    0.0000    0.0000 c3        1 MOL      0.212900
      2 C2          1.1450   -0.9750    0.0360 c3        1 MOL      0.625200
      3 F1          0.1230    0.7890   -1.0970 f         1 MOL     -0.184900
      4 F2          1.1600   -1.7650   -1.0600 f         1 MOL     -0.222100
      5 F3          1.0920   -1.7700    1.1250 f         1 MOL     -0.222100
      6 F4          2.3240   -0.3130    0.0700 f         1 MOL     -0.222100
      7 Br1        -0.0050    1.1060    1.5970 br        1 MOL     -0.107100
      8 H1         -0.9660   -0.5080   -0.0430 h2        1 MOL      0.120400
@<TRIPOS>BOND
     1    1    2 1   
     2    1    3 1   
     3    1    7 1   
     4    2    4 1   
     5    2    5 1   
     6    2    6 1   
     7    1    8 1   
@<TRIPOS>SUBSTRUCTURE
     1 R0_         1 TEMP              0 ****  ****    0 ROOT
