@<TRIPOS>MOLECULE
hexan_2_one
   19    18     1     0     0
SMALL
No Charge or Current Charge


@<TRIPOS>ATOM
      1 C1          1.0520   -1.1530    1.4360 c         1 MOL      0.559200
      2 C2          0.6250    0.1470    0.8060 c3        1 MOL     -0.199900
      3 C3          3.1880   -5.7100    0.9830 c3        1 MOL     -0.089800
      4 C4          1.7900   -2.1230    0.5290 c3        1 MOL     -0.179300
      5 C5          2.8590   -4.3960    0.2920 c3        1 MOL     -0.080000
      6 C6          2.1540   -3.4260    1.2380 c3        1 MOL     -0.070300
      7 O1          0.8080   -1.3970    2.6160 o         1 MOL     -0.528800
      8 H1          1.5050    0.6890    0.4520 hc        1 MOL      0.061900
      9 H2         -0.0550   -0.0540   -0.0250 hc        1 MOL      0.061900
     10 H3          0.1050    0.7620    1.5470 hc        1 MOL      0.061900
     11 H4          2.2790   -6.2030    1.3410 hc        1 MOL      0.032500
     12 H5          3.6910   -6.3880    0.2880 hc        1 MOL      0.032500
     13 H6          3.8510   -5.5470    1.8390 hc        1 MOL      0.032500
     14 H7          2.6990   -1.6260    0.1730 hc        1 MOL      0.063100
     15 H8          1.1470   -2.3340   -0.3320 hc        1 MOL      0.063100
     16 H9          2.2230   -4.5970   -0.5780 hc        1 MOL      0.041700
     17 H10         3.7850   -3.9450   -0.0820 hc        1 MOL      0.041700
     18 H11         2.8010   -3.2110    2.0970 hc        1 MOL      0.048100
     19 H12         1.2450   -3.8940    1.6380 hc        1 MOL      0.048100
@<TRIPOS>BOND
     1    1    2 1   
     2    1    4 1   
     3    1    7 2   
     4    3    5 1   
     5    4    6 1   
     6    5    6 1   
     7    2    8 1   
     8    2    9 1   
     9    2   10 1   
    10    3   11 1   
    11    3   12 1   
    12    3   13 1   
    13    4   14 1   
    14    4   15 1   
    15    5   16 1   
    16    5   17 1   
    17    6   18 1   
    18    6   19 1   
@<TRIPOS>SUBSTRUCTURE
     1 R0_         1 TEMP              0 ****  ****    0 ROOT
