@<TRIPOS>MOLECULE
2_butoxyethanol
   22    21     1     0     0
SMALL
No Charge or Current Charge


@<TRIPOS>ATOM
      1 C1          0.4090   -1.0630   -0.1230 c3        1 MOL     -0.090700
      2 C2         -0.5750   -2.0350    0.5100 c3        1 MOL     -0.076900
      3 C3         -1.9310   -1.9920   -0.1890 c3        1 MOL     -0.080000
      4 C4         -2.9050   -2.9950    0.4140 c3        1 MOL      0.134800
      5 C5         -6.3900   -3.6830   -0.5410 c3        1 MOL      0.131000
      6 C6         -5.0930   -3.8320    0.2300 c3        1 MOL      0.095900
      7 O1         -6.1430   -3.9420   -1.9180 oh        1 MOL     -0.598100
      8 O2         -4.1380   -2.9160   -0.2880 os        1 MOL     -0.429500
      9 H1          0.5740   -1.3040   -1.1780 hc        1 MOL      0.032600
     10 H2          0.0400   -0.0340   -0.0590 hc        1 MOL      0.032600
     11 H3          1.3730   -1.1110    0.3920 hc        1 MOL      0.032600
     12 H4         -0.1610   -3.0490    0.4590 hc        1 MOL      0.041300
     13 H5         -0.6940   -1.7860    1.5710 hc        1 MOL      0.041300
     14 H6         -2.3600   -0.9850   -0.1240 hc        1 MOL      0.052000
     15 H7         -1.8130   -2.1990   -1.2600 hc        1 MOL      0.052000
     16 H8         -2.5190   -4.0160    0.3260 h1        1 MOL      0.026200
     17 H9         -3.0900   -2.7730    1.4700 h1        1 MOL      0.026200
     18 H10        -6.7880   -2.6680   -0.4510 h1        1 MOL      0.053000
     19 H11        -7.1320   -4.4040   -0.1850 h1        1 MOL      0.053000
     20 H12        -4.6860   -4.8430    0.1280 h1        1 MOL      0.033300
     21 H13        -5.2490   -3.6030    1.2880 h1        1 MOL      0.033300
     22 H14        -5.3300   -3.4660   -2.1500 ho        1 MOL      0.404200
@<TRIPOS>BOND
     1    1    2 1   
     2    2    3 1   
     3    3    4 1   
     4    4    8 1   
     5    5    6 1   
     6    5    7 1   
     7    6    8 1   
     8    1    9 1   
     9    1   10 1   
    10    1   11 1   
    11    2   12 1   
    12    2   13 1   
    13    3   14 1   
    14    3   15 1   
    15    4   16 1   
    16    4   17 1   
    17    5   18 1   
    18    5   19 1   
    19    6   20 1   
    20    6   21 1   
    21    7   22 1   
@<TRIPOS>SUBSTRUCTURE
     1 R0_         1 TEMP              0 ****  ****    0 ROOT
