@<TRIPOS>MOLECULE
aniline
   14    14     1     0     0
SMALL
No Charge or Current Charge


@<TRIPOS>ATOM
      1 C1          1.8850   -1.0380   -0.1090 ca        1 MOL     -0.173700
      2 C2          0.8180   -0.4410    0.5630 ca        1 MOL     -0.093000
      3 C3          2.9350   -1.6040    0.6140 ca        1 MOL     -0.093000
      4 C4          0.8010   -0.4100    1.9570 ca        1 MOL     -0.192400
      5 C5          2.9180   -1.5730    2.0080 ca        1 MOL     -0.192400
      6 C6          1.8510   -0.9770    2.6800 ca        1 MOL      0.141300
      7 N1          1.8340   -0.9470    4.0900 nh        1 MOL     -0.824900
      8 H1          1.8970   -1.0610   -1.1950 ha        1 MOL      0.130700
      9 H2          0.0000   -0.0000   -0.0010 ha        1 MOL      0.128600
     10 H3          3.7650   -2.0680    0.0910 ha        1 MOL      0.128600
     11 H4         -0.0360    0.0560    2.4700 ha        1 MOL      0.130400
     12 H5          3.7420   -2.0180    2.5610 ha        1 MOL      0.130400
     13 H6          2.4330   -1.5650    4.5980 hn        1 MOL      0.389600
     14 H7          1.1570   -0.3770    4.5570 hn        1 MOL      0.389600
@<TRIPOS>BOND
     1    1    2 ar  
     2    1    3 ar  
     3    2    4 ar  
     4    3    5 ar  
     5    4    6 ar  
     6    5    6 ar  
     7    6    7 1   
     8    1    8 1   
     9    2    9 1   
    10    3   10 1   
    11    4   11 1   
    12    5   12 1   
    13    7   13 1   
    14    7   14 1   
@<TRIPOS>SUBSTRUCTURE
     1 R0_         1 TEMP              0 ****  ****    0 ROOT
