@<TRIPOS>MOLECULE
1_bromobutane
   14    13     1     0     0
SMALL
No Charge or Current Charge


@<TRIPOS>ATOM
      1 C1         -0.0590    0.4630    0.9900 c3        1 MOL     -0.091900
      2 C2          0.7280   -0.3540    2.0020 c3        1 MOL     -0.080300
      3 C3          0.6660    0.2690    3.3960 c3        1 MOL     -0.077400
      4 C4          1.4220   -0.5780    4.4050 c3        1 MOL     -0.004700
      5 Br1         1.3670    0.2760    6.1540 br        1 MOL     -0.182500
      6 H1          0.3380    1.4800    0.9130 hc        1 MOL      0.034600
      7 H2          0.0000    0.0000    0.0000 hc        1 MOL      0.034600
      8 H3         -1.1150    0.5270    1.2720 hc        1 MOL      0.034600
      9 H4          1.7710   -0.4260    1.6720 hc        1 MOL      0.043000
     10 H5          0.3260   -1.3740    2.0310 hc        1 MOL      0.043000
     11 H6          1.0880    1.2810    3.3640 hc        1 MOL      0.052700
     12 H7         -0.3820    0.3740    3.7040 hc        1 MOL      0.052700
     13 H8          2.4780   -0.6840    4.1430 h1        1 MOL      0.070800
     14 H9          0.9740   -1.5680    4.5270 h1        1 MOL      0.070800
@<TRIPOS>BOND
     1    1    2 1   
     2    2    3 1   
     3    3    4 1   
     4    4    5 1   
     5    1    6 1   
     6    1    7 1   
     7    1    8 1   
     8    2    9 1   
     9    2   10 1   
    10    3   11 1   
    11    3   12 1   
    12    4   13 1   
    13    4   14 1   
@<TRIPOS>SUBSTRUCTURE
     1 R0_         1 TEMP              0 ****  ****    0 ROOT
