@<TRIPOS>MOLECULE
methylcyclohexane
   21    21     1     0     0
SMALL
No Charge or Current Charge


@<TRIPOS>ATOM
      1 C1          0.8990   -0.5230   -0.3430 c3        1 MOL     -0.073500
      2 C2          0.8740   -1.9670    0.1500 c3        1 MOL     -0.073400
      3 C3          0.9870   -0.4520   -1.8650 c3        1 MOL     -0.073400
      4 C4          2.0620   -2.7650   -0.3810 c3        1 MOL     -0.070100
      5 C5          2.1750   -1.2470   -2.3990 c3        1 MOL     -0.070100
      6 C6          2.1480   -2.7020   -1.9120 c3        1 MOL     -0.063000
      7 C7          3.3740   -3.4620   -2.4150 c3        1 MOL     -0.086400
      8 H1         -0.0000   -0.0000   -0.0000 hc        1 MOL      0.036700
      9 H2          1.7590   -0.0030    0.0970 hc        1 MOL      0.036700
     10 H3          0.8790   -1.9820    1.2450 hc        1 MOL      0.037100
     11 H4         -0.0600   -2.4460   -0.1720 hc        1 MOL      0.037100
     12 H5          0.0600   -0.8420   -2.3020 hc        1 MOL      0.037100
     13 H6          1.0720    0.5950   -2.1800 hc        1 MOL      0.037100
     14 H7          2.9880   -2.3730    0.0590 hc        1 MOL      0.037400
     15 H8          1.9740   -3.8080   -0.0560 hc        1 MOL      0.037400
     16 H9          2.1660   -1.2220   -3.4950 hc        1 MOL      0.037400
     17 H10         3.1080   -0.7650   -2.0780 hc        1 MOL      0.037400
     18 H11         1.2600   -3.1930   -2.3310 hc        1 MOL      0.042700
     19 H12         3.8760   -3.9720   -1.5880 hc        1 MOL      0.032000
     20 H13         3.0830   -4.2130   -3.1560 hc        1 MOL      0.032000
     21 H14         4.0870   -2.7760   -2.8810 hc        1 MOL      0.032000
@<TRIPOS>BOND
     1    1    2 1   
     2    1    3 1   
     3    2    4 1   
     4    3    5 1   
     5    4    6 1   
     6    5    6 1   
     7    6    7 1   
     8    1    8 1   
     9    1    9 1   
    10    2   10 1   
    11    2   11 1   
    12    3   12 1   
    13    3   13 1   
    14    4   14 1   
    15    4   15 1   
    16    5   16 1   
    17    5   17 1   
    18    6   18 1   
    19    7   19 1   
    20    7   20 1   
    21    7   21 1   
@<TRIPOS>SUBSTRUCTURE
     1 R0_         1 TEMP              0 ****  ****    0 ROOT
