@<TRIPOS>MOLECULE
234_trimethylpentane
   26    25     1     0     0
SMALL
No Charge or Current Charge


@<TRIPOS>ATOM
      1 C1         -0.5870   -0.0110    0.9250 c3        1 MOL     -0.086800
      2 C2          1.4650    0.7010    2.1710 c3        1 MOL     -0.086800
      3 C3         -0.8920   -2.9280    3.2590 c3        1 MOL     -0.086800
      4 C4         -2.2370   -1.6120    4.8850 c3        1 MOL     -0.086800
      5 C5         -1.0990    0.9480    3.8640 c3        1 MOL     -0.087000
      6 C6          0.3140   -0.3120    2.1260 c3        1 MOL     -0.062900
      7 C7         -1.5110   -1.5510    3.5320 c3        1 MOL     -0.062900
      8 C8         -0.4560   -0.3970    3.4830 c3        1 MOL     -0.052400
      9 H1         -1.0650    0.9700    1.0130 hc        1 MOL      0.032100
     10 H2         -0.0010   -0.0080   -0.0010 hc        1 MOL      0.032100
     11 H3         -1.3700   -0.7650    0.8090 hc        1 MOL      0.032100
     12 H4          2.0950    0.5390    3.0510 hc        1 MOL      0.032100
     13 H5          1.1060    1.7340    2.1860 hc        1 MOL      0.032100
     14 H6          2.1010    0.5920    1.2850 hc        1 MOL      0.032100
     15 H7         -1.6300   -3.7250    3.4030 hc        1 MOL      0.032100
     16 H8         -0.5410   -3.0130    2.2260 hc        1 MOL      0.032100
     17 H9         -0.0490   -3.1230    3.9300 hc        1 MOL      0.032100
     18 H10        -2.8590   -0.7270    5.0470 hc        1 MOL      0.032100
     19 H11        -1.5250   -1.6920    5.7130 hc        1 MOL      0.032100
     20 H12        -2.9060   -2.4780    4.9310 hc        1 MOL      0.032100
     21 H13        -0.3880    1.7760    3.7960 hc        1 MOL      0.032800
     22 H14        -1.4500    0.9400    4.9000 hc        1 MOL      0.032800
     23 H15        -1.9550    1.1790    3.2220 hc        1 MOL      0.032800
     24 H16         0.7900   -1.2830    1.9460 hc        1 MOL      0.043900
     25 H17        -2.2750   -1.3700    2.7660 hc        1 MOL      0.043900
     26 H18         0.2960   -0.6160    4.2550 hc        1 MOL      0.040800
@<TRIPOS>BOND
     1    1    6 1   
     2    2    6 1   
     3    3    7 1   
     4    4    7 1   
     5    5    8 1   
     6    6    8 1   
     7    7    8 1   
     8    1    9 1   
     9    1   10 1   
    10    1   11 1   
    11    2   12 1   
    12    2   13 1   
    13    2   14 1   
    14    3   15 1   
    15    3   16 1   
    16    3   17 1   
    17    4   18 1   
    18    4   19 1   
    19    4   20 1   
    20    5   21 1   
    21    5   22 1   
    22    5   23 1   
    23    6   24 1   
    24    7   25 1   
    25    8   26 1   
@<TRIPOS>SUBSTRUCTURE
     1 R0_         1 TEMP              0 ****  ****    0 ROOT
