@<TRIPOS>MOLECULE
SAMPL4_038
   17    17     1     0     0
SMALL
bcc


@<TRIPOS>ATOM
      1 C1          2.2410   -1.2220   -0.3390 ca        1 MOL     -0.150000
      2 C2          3.2730   -1.8980    0.3120 ca        1 MOL     -0.095000
      3 C3          1.2330   -0.6070    0.4030 ca        1 MOL     -0.068000
      4 C4          3.2960   -1.9590    1.7050 ca        1 MOL     -0.148000
      5 C5          1.2560   -0.6680    1.7960 ca        1 MOL     -0.198600
      6 C6          2.2880   -1.3440    2.4470 ca        1 MOL     -0.029300
      7 C7          0.1910   -0.0170    2.5460 c         1 MOL      0.574500
      8 C8          2.3370   -1.4260    3.9380 c3        1 MOL     -0.064800
      9 O1         -0.9560    0.1120    2.1110 o         1 MOL     -0.531100
     10 H1          2.2230   -1.1740   -1.4240 ha        1 MOL      0.138000
     11 H2          4.0570   -2.3770   -0.2660 ha        1 MOL      0.135000
     12 H3          0.4340   -0.0830   -0.1170 ha        1 MOL      0.155000
     13 H4          4.1040   -2.4890    2.2030 ha        1 MOL      0.135000
     14 H5          0.4430    0.3740    3.5550 h4        1 MOL     -0.000800
     15 H6          2.9000   -0.5790    4.3460 hc        1 MOL      0.049700
     16 H7          1.3280   -1.4150    4.3690 hc        1 MOL      0.049700
     17 H8          2.8150   -2.3560    4.2680 hc        1 MOL      0.049700
@<TRIPOS>BOND
     1    1    2 ar  
     2    1    3 ar  
     3    2    4 ar  
     4    3    5 ar  
     5    4    6 ar  
     6    5    6 ar  
     7    5    7 1   
     8    6    8 1   
     9    7    9 2   
    10    1   10 1   
    11    2   11 1   
    12    3   12 1   
    13    4   13 1   
    14    7   14 1   
    15    8   15 1   
    16    8   16 1   
    17    8   17 1   
@<TRIPOS>SUBSTRUCTURE
     1 TMP         1 TEMP              0 ****  ****    0 ROOT
