@<TRIPOS>MOLECULE
heptan_2_one
   22    21     1     0     0
SMALL
No Charge or Current Charge


@<TRIPOS>ATOM
      1 C1          1.0890    1.5730    1.4680 c         1 MOL      0.559100
      2 C2          2.4360    1.1400    0.9500 c3        1 MOL     -0.199900
      3 C3         -3.2590    0.4560    5.9970 c3        1 MOL     -0.090100
      4 C4          0.4910    0.7790    2.6120 c3        1 MOL     -0.179100
      5 C5         -2.7150    1.1920    4.7830 c3        1 MOL     -0.076200
      6 C6         -0.8380    1.3480    3.1010 c3        1 MOL     -0.070400
      7 C7         -1.4000    0.5790    4.2990 c3        1 MOL     -0.078900
      8 O1          0.5040    2.5450    0.9910 o         1 MOL     -0.528500
      9 H1          3.2130    1.4080    1.6680 hc        1 MOL      0.061900
     10 H2          2.4360    0.0610    0.7760 hc        1 MOL      0.061900
     11 H3          2.6390    1.6410   -0.0010 hc        1 MOL      0.061900
     12 H4         -2.5510    0.4990    6.8310 hc        1 MOL      0.032900
     13 H5         -4.1990    0.9100    6.3260 hc        1 MOL      0.032900
     14 H6         -3.4530   -0.5960    5.7650 hc        1 MOL      0.032900
     15 H7          0.3670   -0.2610    2.2880 hc        1 MOL      0.062800
     16 H8          1.2200    0.7690    3.4300 hc        1 MOL      0.062800
     17 H9         -2.5620    2.2460    5.0400 hc        1 MOL      0.037200
     18 H10        -3.4600    1.1580    3.9790 hc        1 MOL      0.037200
     19 H11        -1.5730    1.3500    2.2880 hc        1 MOL      0.048200
     20 H12        -0.6810    2.3950    3.3880 hc        1 MOL      0.048200
     21 H13        -1.5680   -0.4690    4.0260 hc        1 MOL      0.041600
     22 H14        -0.6690    0.5870    5.1170 hc        1 MOL      0.041600
@<TRIPOS>BOND
     1    1    2 1   
     2    1    4 1   
     3    1    8 2   
     4    3    5 1   
     5    4    6 1   
     6    5    7 1   
     7    6    7 1   
     8    2    9 1   
     9    2   10 1   
    10    2   11 1   
    11    3   12 1   
    12    3   13 1   
    13    3   14 1   
    14    4   15 1   
    15    4   16 1   
    16    5   17 1   
    17    5   18 1   
    18    6   19 1   
    19    6   20 1   
    20    7   21 1   
    21    7   22 1   
@<TRIPOS>SUBSTRUCTURE
     1 R0_         1 TEMP              0 ****  ****    0 ROOT
