@<TRIPOS>MOLECULE
methyl_ethyl_ether
   12    11     1     0     0
SMALL
No Charge or Current Charge


@<TRIPOS>ATOM
      1 C1          1.0660   -2.6490    2.1720 c3        1 MOL     -0.114500
      2 C2          0.1830    0.9030    1.8290 c3        1 MOL      0.119000
      3 C3          1.2890   -1.1660    1.9690 c3        1 MOL      0.128500
      4 O1          0.0350   -0.4990    2.0140 os        1 MOL     -0.423200
      5 H1          2.0140   -3.1940    2.1420 hc        1 MOL      0.041900
      6 H2          0.5800   -2.8380    3.1350 hc        1 MOL      0.041900
      7 H3          0.4040   -3.0500    1.3970 hc        1 MOL      0.041900
      8 H4          1.1930    1.2040    2.1160 h1        1 MOL      0.030400
      9 H5         -0.5540    1.4310    2.4380 h1        1 MOL      0.030400
     10 H6          0.0190    1.1410    0.7750 h1        1 MOL      0.030400
     11 H7          1.7540   -0.9780    0.9970 h1        1 MOL      0.036700
     12 H8          1.9320   -0.7630    2.7570 h1        1 MOL      0.036700
@<TRIPOS>BOND
     1    1    3 1   
     2    2    4 1   
     3    3    4 1   
     4    1    5 1   
     5    1    6 1   
     6    1    7 1   
     7    2    8 1   
     8    2    9 1   
     9    2   10 1   
    10    3   11 1   
    11    3   12 1   
@<TRIPOS>SUBSTRUCTURE
     1 R0_         1 TEMP              0 ****  ****    0 ROOT
