@<TRIPOS>MOLECULE
224_trimethylpentane
   26    25     1     0     0
SMALL
No Charge or Current Charge


@<TRIPOS>ATOM
      1 C1          0.1430   -1.3720    1.8260 c3        1 MOL     -0.087000
      2 C2         -1.1170   -0.6950   -0.2130 c3        1 MOL     -0.087000
      3 C3         -2.9260   -4.7490    2.2770 c3        1 MOL     -0.083500
      4 C4         -2.1640   -2.7310    3.5510 c3        1 MOL     -0.083500
      5 C5         -0.4900   -4.3140    2.5940 c3        1 MOL     -0.083500
      6 C6         -1.7670   -2.8210    1.0370 c3        1 MOL     -0.062800
      7 C7         -1.2360   -1.3730    1.1560 c3        1 MOL     -0.062400
      8 C8         -1.8600   -3.6470    2.3520 c3        1 MOL     -0.051600
      9 H1          0.8650   -1.9620    1.2510 hc        1 MOL      0.031900
     10 H2          0.5330   -0.3520    1.9160 hc        1 MOL      0.031900
     11 H3          0.0840   -1.7940    2.8350 hc        1 MOL      0.031900
     12 H4         -0.4220   -1.2360   -0.8650 hc        1 MOL      0.031900
     13 H5         -0.7430    0.3290   -0.1050 hc        1 MOL      0.031900
     14 H6         -2.0800   -0.6380   -0.7260 hc        1 MOL      0.031900
     15 H7         -3.9350   -4.3310    2.2080 hc        1 MOL      0.032600
     16 H8         -2.9020   -5.3810    3.1720 hc        1 MOL      0.032600
     17 H9         -2.7620   -5.3990    1.4110 hc        1 MOL      0.032600
     18 H10        -2.1300   -3.2910    4.4930 hc        1 MOL      0.032600
     19 H11        -1.4320   -1.9190    3.6240 hc        1 MOL      0.032600
     20 H12        -3.1580   -2.2800    3.4800 hc        1 MOL      0.032600
     21 H13         0.3070   -3.5660    2.6720 hc        1 MOL      0.032600
     22 H14        -0.4890   -4.8990    3.5210 hc        1 MOL      0.032600
     23 H15        -0.2310   -4.9940    1.7740 hc        1 MOL      0.032600
     24 H16        -2.7540   -2.7990    0.5550 hc        1 MOL      0.036700
     25 H17        -1.1210   -3.3820    0.3470 hc        1 MOL      0.036700
     26 H18        -1.9010   -0.7690    1.7810 hc        1 MOL      0.042900
@<TRIPOS>BOND
     1    1    7 1   
     2    2    7 1   
     3    3    8 1   
     4    4    8 1   
     5    5    8 1   
     6    6    7 1   
     7    6    8 1   
     8    1    9 1   
     9    1   10 1   
    10    1   11 1   
    11    2   12 1   
    12    2   13 1   
    13    2   14 1   
    14    3   15 1   
    15    3   16 1   
    16    3   17 1   
    17    4   18 1   
    18    4   19 1   
    19    4   20 1   
    20    5   21 1   
    21    5   22 1   
    22    5   23 1   
    23    6   24 1   
    24    6   25 1   
    25    7   26 1   
@<TRIPOS>SUBSTRUCTURE
     1 R0_         1 TEMP              0 ****  ****    0 ROOT
