@<TRIPOS>MOLECULE
14_dichlorobutane
   14    13     1     0     0
SMALL
No Charge or Current Charge


@<TRIPOS>ATOM
      1 C1          0.8980   -0.5220    0.3540 c3        1 MOL     -0.090700
      2 C2          2.0860    0.4470    0.3010 c3        1 MOL     -0.090700
      3 C3          0.6160   -1.0500    1.7580 c3        1 MOL      0.040400
      4 C4          2.3210    1.0320   -1.0880 c3        1 MOL      0.040400
      5 Cl1         1.9960   -1.9550    2.4200 cl        1 MOL     -0.196800
      6 Cl2         2.6840   -0.2280   -2.2900 cl        1 MOL     -0.196800
      7 H1          1.0600   -1.3660   -0.3260 hc        1 MOL      0.059300
      8 H2          0.0000    0.0000    0.0000 hc        1 MOL      0.059300
      9 H3          3.0000   -0.0480    0.6480 hc        1 MOL      0.059300
     10 H4          1.8950    1.2780    0.9920 hc        1 MOL      0.059300
     11 H5          0.3850   -0.2330    2.4490 h1        1 MOL      0.064300
     12 H6         -0.2390   -1.7320    1.7380 h1        1 MOL      0.064300
     13 H7          1.4470    1.5890   -1.4370 h1        1 MOL      0.064300
     14 H8          3.1760    1.7150   -1.0680 h1        1 MOL      0.064300
@<TRIPOS>BOND
     1    1    2 1   
     2    1    3 1   
     3    2    4 1   
     4    3    5 1   
     5    4    6 1   
     6    1    7 1   
     7    1    8 1   
     8    2    9 1   
     9    2   10 1   
    10    3   11 1   
    11    3   12 1   
    12    4   13 1   
    13    4   14 1   
@<TRIPOS>SUBSTRUCTURE
     1 R0_         1 TEMP              0 ****  ****    0 ROOT
