@<TRIPOS>MOLECULE
222_trifluoroethanol
    9     8     1     0     0
SMALL
No Charge or Current Charge


@<TRIPOS>ATOM
      1 C1          0.7720   -0.3320    0.7000 c3        1 MOL      0.097600
      2 C2          1.3430    0.8420    1.4540 c3        1 MOL      0.649000
      3 O1          1.8120   -0.9630   -0.0310 oh        1 MOL     -0.578500
      4 F1          2.3090    0.4360    2.3050 f         1 MOL     -0.237900
      5 F2          0.3910    1.4670    2.1790 f         1 MOL     -0.237900
      6 F3          1.8890    1.7450    0.6120 f         1 MOL     -0.237900
      7 H1          0.3380   -1.0580    1.3930 h1        1 MOL      0.062000
      8 H2          0.0000    0.0000    0.0000 h1        1 MOL      0.062000
      9 H3          1.9280   -1.8480    0.3510 ho        1 MOL      0.421500
@<TRIPOS>BOND
     1    1    2 1   
     2    1    3 1   
     3    2    4 1   
     4    2    5 1   
     5    2    6 1   
     6    1    7 1   
     7    1    8 1   
     8    3    9 1   
@<TRIPOS>SUBSTRUCTURE
     1 R0_         1 TEMP              0 ****  ****    0 ROOT
