@<TRIPOS>MOLECULE
CUP08004_AM1BCC_v1_0
   17    16     1     0     0
SMALL
No Charge or Current Charge


@<TRIPOS>ATOM
      1 C1          0.9960   -0.0740   -0.2700 c3        1 MOL     -0.096500
      2 C2          1.1100    0.9440   -4.0080 c3        1 MOL     -0.126800
      3 C3          1.3770    0.6950   -1.5290 c3        1 MOL     -0.081200
      4 C4          0.6330    0.1810   -2.7730 c3        1 MOL      0.149500
      5 N1         -1.6140   -0.4540   -3.2800 no        1 MOL      0.378600
      6 O1         -2.8040   -0.2330   -3.0630 o         1 MOL     -0.189600
      7 O2         -1.0890   -1.3000   -4.0040 o         1 MOL     -0.189600
      8 O3         -0.7600    0.4270   -2.5720 os        1 MOL     -0.352700
      9 H1         -0.0690    0.0370   -0.0410 hc        1 MOL      0.042100
     10 H2          1.5650    0.3000    0.5870 hc        1 MOL      0.042100
     11 H3          1.2140   -1.1410   -0.3830 hc        1 MOL      0.042100
     12 H4          0.8900    2.0130   -3.9150 hc        1 MOL      0.057500
     13 H5          2.1870    0.8200   -4.1590 hc        1 MOL      0.057500
     14 H6          0.5960    0.5960   -4.9100 hc        1 MOL      0.057500
     15 H7          2.4590    0.6130   -1.6800 hc        1 MOL      0.063500
     16 H8          1.1440    1.7550   -1.3650 hc        1 MOL      0.063500
     17 H9          0.8600   -0.8880   -2.8730 h1        1 MOL      0.082600
@<TRIPOS>BOND
     1    1    3 1   
     2    2    4 1   
     3    3    4 1   
     4    4    8 1   
     5    5    6 1   
     6    5    7 1   
     7    5    8 1   
     8    1    9 1   
     9    1   10 1   
    10    1   11 1   
    11    2   12 1   
    12    2   13 1   
    13    2   14 1   
    14    3   15 1   
    15    3   16 1   
    16    4   17 1   
@<TRIPOS>SUBSTRUCTURE
     1 R0_         1 TEMP              0 ****  ****    0 ROOT
