@<TRIPOS>MOLECULE
1_chloropropane@0
   11    10     1     0     0
SMALL
No Charge or Current Charge


@<TRIPOS>ATOM
      1 C1          0.4630   -0.6320    1.1400 c3        1 MOL     -0.093500
      2 C2          1.2940    0.5330    1.6590 c3        1 MOL      0.085800
      3 C3          0.7110    1.1850    2.9070 c3        1 MOL      0.041200
      4 Cl1         0.7430    0.0920    4.3100 cl        1 MOL     -0.202100
      5 H1         -0.5680   -0.3210    0.9430 hc        1 MOL      0.038200
      6 H2          0.8870   -1.0070    0.2030 hc        1 MOL      0.038200
      7 H3          0.4420   -1.4630    1.8510 hc        1 MOL      0.038200
      8 H4          2.3180    0.1930    1.8540 hc        1 MOL     -0.035000
      9 H5          1.3580    1.2910    0.8700 hc        1 MOL     -0.035000
     10 H6         -0.3270    1.4930    2.7440 h1        1 MOL      0.062100
     11 H7          1.2920    2.0720    3.1750 h1        1 MOL      0.062100
@<TRIPOS>BOND
     1    1    2 1   
     2    1    5 1   
     3    1    6 1   
     4    1    7 1   
     5    2    3 1   
     6    2    8 1   
     7    2    9 1   
     8    3    4 1   
     9    3   10 1   
    10    3   11 1   
@<TRIPOS>SUBSTRUCTURE
     1 UNK         1 TEMP              0 ****  ****    0 ROOT
