@<TRIPOS>MOLECULE
mfc
   12    11     1     0     0
SMALL
bcc


@<TRIPOS>ATOM
      1 H5          0.5220    1.4330    0.6690 hc        1 MOL       0.0566
      2 C1          0.6260    0.3620    0.6050 c3        1 MOL      -0.0739
      3 H6          0.4990   -0.0630    1.6050 hc        1 MOL       0.0566
      4 C3          2.0310    0.0160    0.1210 c3        1 MOL      -0.0925
      5 H10         2.2060   -1.0480    0.0510 hc        1 MOL       0.0342
      6 H11         2.2020    0.4540   -0.8800 hc        1 MOL       0.0342
      7 H9          2.7770    0.4490    0.8080 hc        1 MOL       0.0393
      8 C2         -0.4270   -0.2180   -0.3330 c3        1 MOL       0.0112
      9 H7         -0.3070    0.2030   -1.3460 h1        1 MOL       0.0588
     10 H8         -0.3250   -1.2980   -0.4210 h1        1 MOL       0.0588
     11 S4         -2.1010    0.1860    0.2540 sh        1 MOL      -0.3830
     12 H12        -2.7860   -0.4290   -0.7300 hs        1 MOL       0.1996
@<TRIPOS>BOND
     1    1    2 1   
     2    2    3 1   
     3    2    4 1   
     4    2    8 1   
     5    4    5 1   
     6    4    6 1   
     7    4    7 1   
     8    8    9 1   
     9    8   10 1   
    10    8   11 1   
    11   11   12 1   
@<TRIPOS>SUBSTRUCTURE
     1 mfc         1 TEMP              0 ****  ****    0 ROOT
