@<TRIPOS>MOLECULE
4_methylpentan_2_one
   19    18     1     0     0
SMALL
No Charge or Current Charge


@<TRIPOS>ATOM
      1 C1          1.9780   -0.5490    0.5990 c         1 MOL      0.562000
      2 C2          0.6380   -1.2140    0.4160 c3        1 MOL     -0.200500
      3 C3          4.7490   -1.8030    0.2530 c3        1 MOL     -0.091600
      4 C4          5.1200   -1.4660    2.7050 c3        1 MOL     -0.091600
      5 C5          2.8340   -1.0710    1.7430 c3        1 MOL     -0.175900
      6 C6          4.3440   -0.9800    1.4790 c3        1 MOL     -0.055900
      7 O1          2.3240    0.3840   -0.1240 o         1 MOL     -0.530100
      8 H1          0.0360   -1.0780    1.3180 hc        1 MOL      0.061800
      9 H2          0.1150   -0.7640   -0.4320 hc        1 MOL      0.061800
     10 H3          0.7820   -2.2780    0.2150 hc        1 MOL      0.061800
     11 H4          5.8280   -1.7300    0.0780 hc        1 MOL      0.037400
     12 H5          4.5000   -2.8610    0.3850 hc        1 MOL      0.037400
     13 H6          4.2440   -1.4480   -0.6510 hc        1 MOL      0.037400
     14 H7          6.2000   -1.3920    2.5370 hc        1 MOL      0.037400
     15 H8          4.8840   -2.5100    2.9370 hc        1 MOL      0.037400
     16 H9          4.8780   -0.8590    3.5840 hc        1 MOL      0.037400
     17 H10         2.5710   -0.4740    2.6240 hc        1 MOL      0.062600
     18 H11         2.5500   -2.1110    1.9410 hc        1 MOL      0.062600
     19 H12         4.6220    0.0660    1.2980 hc        1 MOL      0.048500
@<TRIPOS>BOND
     1    1    2 1   
     2    1    5 1   
     3    1    7 2   
     4    3    6 1   
     5    4    6 1   
     6    5    6 1   
     7    2    8 1   
     8    2    9 1   
     9    2   10 1   
    10    3   11 1   
    11    3   12 1   
    12    3   13 1   
    13    4   14 1   
    14    4   15 1   
    15    4   16 1   
    16    5   17 1   
    17    5   18 1   
    18    6   19 1   
@<TRIPOS>SUBSTRUCTURE
     1 R0_         1 TEMP              0 ****  ****    0 ROOT
