@<TRIPOS>MOLECULE
23_dimethylbutane
   20    19     1     0     0
SMALL
No Charge or Current Charge


@<TRIPOS>ATOM
      1 C1          0.5110   -0.7950    0.5540 c3        1 MOL     -0.086500
      2 C2          0.2490    0.5310    2.6600 c3        1 MOL     -0.086500
      3 C3          1.2270   -2.3860    3.1710 c3        1 MOL     -0.086500
      4 C4          3.2010   -1.8540    1.7260 c3        1 MOL     -0.086500
      5 C5          1.2460   -0.2130    1.7650 c3        1 MOL     -0.061200
      6 C6          2.0680   -1.2570    2.5680 c3        1 MOL     -0.061200
      7 H1         -0.2470   -1.5260    0.8520 hc        1 MOL      0.032200
      8 H2          0.0000    0.0000   -0.0000 hc        1 MOL      0.032200
      9 H3          1.2020   -1.2800   -0.1410 hc        1 MOL      0.032200
     10 H4         -0.2110    1.3610    2.1130 hc        1 MOL      0.032200
     11 H5         -0.5570   -0.1230    3.0060 hc        1 MOL      0.032200
     12 H6          0.7500    0.9530    3.5380 hc        1 MOL      0.032200
     13 H7          0.4480   -1.9970    3.8330 hc        1 MOL      0.032200
     14 H8          0.7490   -2.9940    2.3970 hc        1 MOL      0.032200
     15 H9          1.8570   -3.0530    3.7700 hc        1 MOL      0.032200
     16 H10         2.8190   -2.4900    0.9210 hc        1 MOL      0.032200
     17 H11         3.8570   -2.4710    2.3500 hc        1 MOL      0.032200
     18 H12         3.8140   -1.0650    1.2800 hc        1 MOL      0.032200
     19 H13         1.9520    0.5380    1.3870 hc        1 MOL      0.041300
     20 H14         2.5440   -0.7250    3.4030 hc        1 MOL      0.041300
@<TRIPOS>BOND
     1    1    5 1   
     2    2    5 1   
     3    3    6 1   
     4    4    6 1   
     5    5    6 1   
     6    1    7 1   
     7    1    8 1   
     8    1    9 1   
     9    2   10 1   
    10    2   11 1   
    11    2   12 1   
    12    3   13 1   
    13    3   14 1   
    14    3   15 1   
    15    4   16 1   
    16    4   17 1   
    17    4   18 1   
    18    5   19 1   
    19    6   20 1   
@<TRIPOS>SUBSTRUCTURE
     1 R0_         1 TEMP              0 ****  ****    0 ROOT
