@<TRIPOS>MOLECULE
3_methylheptane
   26    25     1     0     0
SMALL
No Charge or Current Charge


@<TRIPOS>ATOM
      1 C1          0.6890    1.0470    8.6990 c3        1 MOL     -0.089600
      2 C2          3.6440   -2.3860    2.5260 c3        1 MOL     -0.089300
      3 C3          2.7220    0.2290    3.8080 c3        1 MOL     -0.087000
      4 C4          1.6980    0.0670    8.1210 c3        1 MOL     -0.078500
      5 C5          3.6300   -2.1370    4.0270 c3        1 MOL     -0.074600
      6 C6          1.5500   -0.0600    6.6030 c3        1 MOL     -0.076700
      7 C7          2.5950   -1.0190    6.0240 c3        1 MOL     -0.072700
      8 C8          2.5480   -1.1350    4.4840 c3        1 MOL     -0.063300
      9 H1          0.8230    2.0460    8.2730 hc        1 MOL      0.031100
     10 H2         -0.3360    0.7200    8.4950 hc        1 MOL      0.031100
     11 H3          0.8130    1.1210    9.7840 hc        1 MOL      0.031100
     12 H4          2.7480   -2.9190    2.1960 hc        1 MOL      0.031500
     13 H5          4.5080   -3.0030    2.2570 hc        1 MOL      0.031500
     14 H6          3.7150   -1.4460    1.9710 hc        1 MOL      0.031500
     15 H7          1.9400    0.9290    4.1150 hc        1 MOL      0.032300
     16 H8          3.6920    0.6720    4.0550 hc        1 MOL      0.032300
     17 H9          2.6530    0.1470    2.7190 hc        1 MOL      0.032300
     18 H10         2.7110    0.4070    8.3690 hc        1 MOL      0.037500
     19 H11         1.5590   -0.9130    8.5910 hc        1 MOL      0.037500
     20 H12         4.6170   -1.7530    4.3130 hc        1 MOL      0.037200
     21 H13         3.5010   -3.0930    4.5490 hc        1 MOL      0.037200
     22 H14         0.5400   -0.4190    6.3750 hc        1 MOL      0.038800
     23 H15         1.6590    0.9280    6.1400 hc        1 MOL      0.038800
     24 H16         2.4680   -2.0120    6.4740 hc        1 MOL      0.037600
     25 H17         3.5910   -0.6660    6.3210 hc        1 MOL      0.037600
     26 H18         1.5670   -1.5360    4.1990 hc        1 MOL      0.044300
@<TRIPOS>BOND
     1    1    4 1   
     2    2    5 1   
     3    3    8 1   
     4    4    6 1   
     5    5    8 1   
     6    6    7 1   
     7    7    8 1   
     8    1    9 1   
     9    1   10 1   
    10    1   11 1   
    11    2   12 1   
    12    2   13 1   
    13    2   14 1   
    14    3   15 1   
    15    3   16 1   
    16    3   17 1   
    17    4   18 1   
    18    4   19 1   
    19    5   20 1   
    20    5   21 1   
    21    6   22 1   
    22    6   23 1   
    23    7   24 1   
    24    7   25 1   
    25    8   26 1   
@<TRIPOS>SUBSTRUCTURE
     1 R0_         1 TEMP              0 ****  ****    0 ROOT
