@<TRIPOS>MOLECULE
propanone
   10     9     1     0     0
SMALL
No Charge or Current Charge


@<TRIPOS>ATOM
      1 C1         -0.0570   -0.4470    2.0870 c         1 MOL      0.558000
      2 C2         -0.7030   -0.4110    0.7290 c3        1 MOL     -0.200200
      3 C3          0.3850    0.8720    2.6620 c3        1 MOL     -0.200200
      4 O1          0.1010   -1.5020    2.6990 o         1 MOL     -0.529000
      5 H1         -1.6070    0.2010    0.7690 hc        1 MOL      0.061900
      6 H2          0.0000    0.0000    0.0000 hc        1 MOL      0.061900
      7 H3         -0.9760   -1.4250    0.4240 hc        1 MOL      0.061900
      8 H4          0.8350    0.7140    3.6460 hc        1 MOL      0.061900
      9 H5         -0.4800    1.5320    2.7710 hc        1 MOL      0.061900
     10 H6          1.1270    1.3290    2.0030 hc        1 MOL      0.061900
@<TRIPOS>BOND
     1    1    2 1   
     2    1    3 1   
     3    1    4 2   
     4    2    5 1   
     5    2    6 1   
     6    2    7 1   
     7    3    8 1   
     8    3    9 1   
     9    3   10 1   
@<TRIPOS>SUBSTRUCTURE
     1 R0_         1 TEMP              0 ****  ****    0 ROOT
