@<TRIPOS>MOLECULE
methyl_cyclopropyl_ketone
   14    14     1     0     0
SMALL
No Charge or Current Charge


@<TRIPOS>ATOM
      1 C1          2.3860    0.7990    3.1700 c         1 MOL      0.588700
      2 C2          0.0370    1.7910    2.9130 cx        1 MOL     -0.106100
      3 C3          0.7570    2.0270    1.6180 cx        1 MOL     -0.106100
      4 C4          1.0820    0.8320    2.4500 cx        1 MOL     -0.246400
      5 C5          3.0370   -0.5480    3.2860 c3        1 MOL     -0.194200
      6 O1          2.8710    1.8270    3.6260 o         1 MOL     -0.529400
      7 H1          0.2850    2.4280    3.7540 hc        1 MOL      0.077600
      8 H2         -1.0060    1.5040    2.8630 hc        1 MOL      0.077600
      9 H3          0.1970    1.8990    0.7000 hc        1 MOL      0.077600
     10 H4          1.4890    2.8250    1.5870 hc        1 MOL      0.077600
     11 H5          0.7590   -0.1320    2.0940 hc        1 MOL      0.095000
     12 H6          2.3790   -1.2300    3.8300 hc        1 MOL      0.062700
     13 H7          3.2470   -0.9430    2.2890 hc        1 MOL      0.062700
     14 H8          3.9780   -0.4530    3.8340 hc        1 MOL      0.062700
@<TRIPOS>BOND
     1    1    4 1   
     2    1    5 1   
     3    1    6 2   
     4    2    3 1   
     5    2    4 1   
     6    3    4 1   
     7    2    7 1   
     8    2    8 1   
     9    3    9 1   
    10    3   10 1   
    11    4   11 1   
    12    5   12 1   
    13    5   13 1   
    14    5   14 1   
@<TRIPOS>SUBSTRUCTURE
     1 R0_         1 TEMP              0 ****  ****    0 ROOT
