@<TRIPOS>MOLECULE
SAMPL4_023
   40    41     1     0     0
SMALL
bcc


@<TRIPOS>ATOM
      1 C1          4.6570    1.3350    7.0000 ca        1 MOL     -0.126000
      2 C2         -0.7640   -3.2210    5.8390 ca        1 MOL     -0.126000
      3 C3          4.9590   -0.0250    6.9300 ca        1 MOL     -0.132750
      4 C4          3.6980    1.8810    6.1470 ca        1 MOL     -0.132750
      5 C5          0.5120   -3.7690    5.9620 ca        1 MOL     -0.132750
      6 C6         -0.9420   -2.0110    5.1700 ca        1 MOL     -0.132750
      7 C7          4.3010   -0.8390    6.0070 ca        1 MOL     -0.111750
      8 C8          3.0400    1.0680    5.2240 ca        1 MOL     -0.111750
      9 C9          1.6110   -3.1070    5.4160 ca        1 MOL     -0.111750
     10 C10         0.1570   -1.3480    4.6230 ca        1 MOL     -0.111750
     11 C11         3.3420   -0.2920    5.1540 ca        1 MOL     -0.096300
     12 C12         1.4340   -1.8960    4.7460 ca        1 MOL     -0.096300
     13 C13         1.5710   -0.4880   -1.7140 c3        1 MOL      0.157600
     14 C14         0.1110   -1.8860   -0.4160 c3        1 MOL      0.157600
     15 C15         1.6470   -0.4040    0.6860 c3        1 MOL      0.165800
     16 C16         2.0250   -1.2580    1.8820 c3        1 MOL      0.126400
     17 C17         2.6280   -1.1750    4.1520 c3        1 MOL      0.237700
     18 N1          1.4310   -1.2600   -0.4800 n3        1 MOL     -0.740600
     19 O1          2.2690   -0.4190    3.0030 os        1 MOL     -0.423600
     20 H1          5.1680    1.9680    7.7190 ha        1 MOL      0.130500
     21 H2         -1.6200   -3.7380    6.2640 ha        1 MOL      0.130500
     22 H3          5.7050   -0.4510    7.5940 ha        1 MOL      0.131000
     23 H4          3.4620    2.9400    6.2020 ha        1 MOL      0.131000
     24 H5          0.6510   -4.7120    6.4830 ha        1 MOL      0.131000
     25 H6         -1.9360   -1.5840    5.0730 ha        1 MOL      0.131000
     26 H7          4.5430   -1.8970    5.9590 ha        1 MOL      0.136750
     27 H8          2.2950    1.5020    4.5640 ha        1 MOL      0.136750
     28 H9          2.6020   -3.5410    5.5170 ha        1 MOL      0.136750
     29 H10         0.0090   -0.4050    4.1030 ha        1 MOL      0.136750
     30 H11         2.5590   -0.0220   -1.7560 h1        1 MOL      0.031700
     31 H12         0.8100    0.2960   -1.7580 h1        1 MOL      0.031700
     32 H13         1.4520   -1.1400   -2.5830 h1        1 MOL      0.031700
     33 H14         0.0130   -2.4620    0.5080 h1        1 MOL      0.031700
     34 H15        -0.0300   -2.5590   -1.2660 h1        1 MOL      0.031700
     35 H16        -0.6710   -1.1230   -0.4400 h1        1 MOL      0.031700
     36 H17         0.7270    0.1580    0.8740 h1        1 MOL      0.044200
     37 H18         2.4530    0.2980    0.4490 h1        1 MOL      0.044200
     38 H19         2.9440   -1.8140    1.6700 h1        1 MOL      0.039700
     39 H20         1.2300   -1.9660    2.1380 h1        1 MOL      0.039700
     40 H21         3.3380   -1.9220    3.7750 h1        1 MOL      0.050700
@<TRIPOS>BOND
     1    1    3 ar  
     2    1    4 ar  
     3    2    5 ar  
     4    2    6 ar  
     5    3    7 ar  
     6    4    8 ar  
     7    5    9 ar  
     8    6   10 ar  
     9    7   11 ar  
    10    8   11 ar  
    11    9   12 ar  
    12   10   12 ar  
    13   11   17 1   
    14   12   17 1   
    15   13   18 1   
    16   14   18 1   
    17   15   16 1   
    18   15   18 1   
    19   16   19 1   
    20   17   19 1   
    21    1   20 1   
    22    2   21 1   
    23    3   22 1   
    24    4   23 1   
    25    5   24 1   
    26    6   25 1   
    27    7   26 1   
    28    8   27 1   
    29    9   28 1   
    30   10   29 1   
    31   13   30 1   
    32   13   31 1   
    33   13   32 1   
    34   14   33 1   
    35   14   34 1   
    36   14   35 1   
    37   15   36 1   
    38   15   37 1   
    39   16   38 1   
    40   16   39 1   
    41   17   40 1   
@<TRIPOS>SUBSTRUCTURE
     1 TMP         1 TEMP              0 ****  ****    0 ROOT
