@<TRIPOS>MOLECULE
1,2,3,4-tetrachloro-5-(3,4,5-trichlorophenyl)benzene
   22    23     1     0     0
SMALL
No Charge or Current Charge


@<TRIPOS>ATOM
      1 C1          1.8850   -1.0360   -0.1120 ca        1 MOL     -0.096400
      2 C2          0.7640   -0.4840    1.9550 ca        1 MOL     -0.095100
      3 C3         -0.1530    1.5110   -0.4870 ca        1 MOL     -0.096900
      4 C4          0.8070   -0.4630    0.5610 cp        1 MOL     -0.035600
      5 C5         -0.2680    0.1540   -0.1860 cp        1 MOL     -0.029200
      6 C6          2.9210   -1.6310    0.6080 ca        1 MOL      0.020800
      7 C7          1.8000   -1.0790    2.6760 ca        1 MOL      0.021500
      8 C8         -1.1620    2.1540   -1.2050 ca        1 MOL      0.020300
      9 C9         -1.3910   -0.5610   -0.6040 ca        1 MOL      0.035300
     10 C10         2.8780   -1.6520    2.0020 ca        1 MOL      0.022600
     11 C11        -2.2850    1.4390   -1.6220 ca        1 MOL      0.026700
     12 C12        -2.3990    0.0820   -1.3220 ca        1 MOL      0.019100
     13 Cl1         4.2250   -2.3220   -0.2960 cl        1 MOL     -0.054700
     14 Cl2         1.6770   -1.0660    4.4020 cl        1 MOL     -0.056600
     15 Cl3        -0.9480    3.8390   -1.5380 cl        1 MOL     -0.050300
     16 Cl4        -1.5120   -2.2550   -0.2190 cl        1 MOL     -0.040400
     17 Cl5         4.1690   -2.3930    2.9000 cl        1 MOL     -0.037800
     18 Cl6        -3.5360    2.2560   -2.5160 cl        1 MOL     -0.032900
     19 Cl7        -3.8010   -0.8130   -1.8430 cl        1 MOL     -0.033400
     20 H1          1.9160   -1.0180   -1.2000 ha        1 MOL      0.162800
     21 H2         -0.0790   -0.0350    2.4780 ha        1 MOL      0.163300
     22 H3          0.7230    2.0690   -0.1610 ha        1 MOL      0.166800
@<TRIPOS>BOND
     1    1    4 ar  
     2    1    6 ar  
     3    2    4 ar  
     4    2    7 ar  
     5    3    5 ar  
     6    3    8 ar  
     7    4    5 1   
     8    5    9 ar  
     9    6   10 ar  
    10    6   13 1   
    11    7   10 ar  
    12    7   14 1   
    13    8   11 ar  
    14    8   15 1   
    15    9   12 ar  
    16    9   16 1   
    17   10   17 1   
    18   11   12 ar  
    19   11   18 1   
    20   12   19 1   
    21    1   20 1   
    22    2   21 1   
    23    3   22 1   
@<TRIPOS>SUBSTRUCTURE
     1 MOL         1 TEMP              0 ****  ****    0 ROOT
