@<TRIPOS>MOLECULE
3_chloroprop_1_ene
    9     8     1     0     0
SMALL
No Charge or Current Charge


@<TRIPOS>ATOM
      1 C1         -0.5250   -0.5540    0.7700 c2        1 MOL     -0.194500
      2 C2         -0.5340   -1.8920    0.7870 c2        1 MOL     -0.028500
      3 C3          0.1480   -2.7410   -0.2330 c3        1 MOL      0.073000
      4 Cl1         1.3430   -3.7930    0.5550 cl        1 MOL     -0.194800
      5 H1         -1.0470    0.0080    1.5360 ha        1 MOL      0.118200
      6 H2          0.0000   -0.0000    0.0000 ha        1 MOL      0.118200
      7 H3         -1.0820   -2.3970    1.5780 ha        1 MOL     -0.028500
      8 H4         -0.5800   -3.3790   -0.7420 h1        1 MOL      0.068500
      9 H5          0.6730   -2.1470   -0.9870 h1        1 MOL      0.068500
@<TRIPOS>BOND
     1    1    2 2   
     2    2    3 1   
     3    3    4 1   
     4    1    5 1   
     5    1    6 1   
     6    2    7 1   
     7    3    8 1   
     8    3    9 1   
@<TRIPOS>SUBSTRUCTURE
     1 R0_         1 TEMP              0 ****  ****    0 ROOT
