@<TRIPOS>MOLECULE
hexachloroethane
    8     7     1     0     0
SMALL
No Charge or Current Charge


@<TRIPOS>ATOM
      1 C1         -0.4110    0.7270    1.3110 c3        1 MOL      0.221700
      2 C2          0.0000    0.0000    0.0000 c3        1 MOL      0.221700
      3 Cl1        -1.3720   -0.3460    2.4000 cl        1 MOL     -0.074000
      4 Cl2         1.0270    1.2810    2.2510 cl        1 MOL     -0.073500
      5 Cl3        -1.4210    2.1860    0.9810 cl        1 MOL     -0.074200
      6 Cl4        -1.4380   -0.5540   -0.9400 cl        1 MOL     -0.073500
      7 Cl5         1.0100   -1.4590    0.3310 cl        1 MOL     -0.074200
      8 Cl6         0.9610    1.0730   -1.0890 cl        1 MOL     -0.074000
@<TRIPOS>BOND
     1    1    2 1   
     2    1    3 1   
     3    1    4 1   
     4    1    5 1   
     5    2    6 1   
     6    2    7 1   
     7    2    8 1   
@<TRIPOS>SUBSTRUCTURE
     1 HEX         1 TEMP              0 ****  ****    0 ROOT
