@<TRIPOS>MOLECULE
1245_tetrachlorobenzene
   12    12     1     0     0
SMALL
No Charge or Current Charge


@<TRIPOS>ATOM
      1 C1          0.8320   -0.3950    0.5750 ca        1 MOL     -0.107900
      2 C2          2.9710   -1.4090    2.0520 ca        1 MOL     -0.107900
      3 C3          1.8990   -1.0140   -0.0770 ca        1 MOL      0.022400
      4 C4          0.8350   -0.2830    1.9660 ca        1 MOL      0.022400
      5 C5          2.9680   -1.5200    0.6620 ca        1 MOL      0.022400
      6 C6          1.9040   -0.7900    2.7040 ca        1 MOL      0.022400
      7 Cl1         1.8400   -1.1200   -1.8010 cl        1 MOL     -0.053400
      8 Cl2        -0.5150    0.4950    2.7160 cl        1 MOL     -0.053400
      9 Cl3         4.3190   -2.2960   -0.0880 cl        1 MOL     -0.053400
     10 Cl4         1.9640   -0.6810    4.4280 cl        1 MOL     -0.053400
     11 H1         -0.0010    0.0010   -0.0020 ha        1 MOL      0.169800
     12 H2          3.8050   -1.8040    2.6280 ha        1 MOL      0.169800
@<TRIPOS>BOND
     1    1    3 ar  
     2    1    4 ar  
     3    2    5 ar  
     4    2    6 ar  
     5    3    5 ar  
     6    3    7 1   
     7    4    6 ar  
     8    4    8 1   
     9    5    9 1   
    10    6   10 1   
    11    1   11 1   
    12    2   12 1   
@<TRIPOS>SUBSTRUCTURE
     1 R0_         1 TEMP              0 ****  ****    0 ROOT
