@<TRIPOS>MOLECULE
3_methylbutanoic_acid
   17    16     1     0     0
SMALL
No Charge or Current Charge


@<TRIPOS>ATOM
      1 C1         -2.8820   -1.5800   -0.6670 c         1 MOL      0.636900
      2 C2          0.0230   -1.0820   -0.1670 c3        1 MOL     -0.093500
      3 C3          0.3920   -0.8160   -2.6290 c3        1 MOL     -0.093500
      4 C4         -1.9630   -0.9780   -1.7030 c3        1 MOL     -0.122900
      5 C5         -0.5050   -1.4420   -1.5570 c3        1 MOL     -0.059300
      6 O1         -3.5150   -0.9660    0.1790 o         1 MOL     -0.549900
      7 O2         -2.9440   -2.9270   -0.8230 oh        1 MOL     -0.611500
      8 H1         -0.5800   -1.5590    0.6130 hc        1 MOL      0.039700
      9 H2          0.0000    0.0000   -0.0000 hc        1 MOL      0.039700
     10 H3          1.0560   -1.4230   -0.0430 hc        1 MOL      0.039700
     11 H4          0.3870    0.2780   -2.5620 hc        1 MOL      0.039700
     12 H5          1.4260   -1.1550   -2.5130 hc        1 MOL      0.039700
     13 H6          0.0640   -1.0940   -3.6350 hc        1 MOL      0.039700
     14 H7         -2.3360   -1.2380   -2.7010 hc        1 MOL      0.077900
     15 H8         -2.0240    0.1110   -1.5850 hc        1 MOL      0.077900
     16 H9         -0.4570   -2.5330   -1.6650 hc        1 MOL      0.057300
     17 H10        -3.5550   -3.3420   -0.1770 ho        1 MOL      0.442500
@<TRIPOS>BOND
     1    1    4 1   
     2    1    6 2   
     3    1    7 1   
     4    2    5 1   
     5    3    5 1   
     6    4    5 1   
     7    2    8 1   
     8    2    9 1   
     9    2   10 1   
    10    3   11 1   
    11    3   12 1   
    12    3   13 1   
    13    4   14 1   
    14    4   15 1   
    15    5   16 1   
    16    7   17 1   
@<TRIPOS>SUBSTRUCTURE
     1 R0_         1 TEMP              0 ****  ****    0 ROOT
