@<TRIPOS>MOLECULE
2_isobutylpyrazine
   22    22     1     0     0
SMALL
No Charge or Current Charge


@<TRIPOS>ATOM
      1 C1         -2.3110    3.1440   -1.9980 ca        1 MOL      0.272500
      2 C2         -3.1110    3.0370   -0.8820 ca        1 MOL      0.285000
      3 C3         -0.4780    2.6220   -0.7330 ca        1 MOL      0.278000
      4 C4         -1.2870    2.5200    0.3650 ca        1 MOL      0.304600
      5 C5         -2.0270    0.0020    1.8760 c3        1 MOL     -0.089100
      6 C6          0.3170   -0.0300    1.0010 c3        1 MOL     -0.089100
      7 C7         -0.6900    2.1630    1.7040 c3        1 MOL     -0.123100
      8 C8         -0.6430    0.6470    1.9820 c3        1 MOL     -0.062200
      9 N1         -0.9800    2.9390   -1.9440 nb        1 MOL     -0.627700
     10 N2         -2.6100    2.7200    0.3280 nb        1 MOL     -0.633000
     11 H1         -2.7140    3.3990   -2.9700 h4        1 MOL      0.033500
     12 H2         -4.1810    3.2030   -0.9270 h4        1 MOL      0.032700
     13 H3          0.5920    2.4580   -0.6970 h4        1 MOL      0.032900
     14 H4         -2.4720    0.1740    0.8900 hc        1 MOL      0.035700
     15 H5         -2.7110    0.3990    2.6330 hc        1 MOL      0.035700
     16 H6         -1.9630   -1.0810    2.0310 hc        1 MOL      0.035700
     17 H7          0.3860   -1.1040    1.2020 hc        1 MOL      0.035700
     18 H8         -0.0150    0.1010   -0.0350 hc        1 MOL      0.035700
     19 H9          1.3250    0.3910    1.0900 hc        1 MOL      0.035700
     20 H10         0.3180    2.5890    1.7890 hc        1 MOL      0.059400
     21 H11        -1.2870    2.6640    2.4780 hc        1 MOL      0.059400
     22 H12        -0.2630    0.4720    2.9960 hc        1 MOL      0.052100
@<TRIPOS>BOND
     1    1    2 ar  
     2    1    9 ar  
     3    2   10 ar  
     4    3    4 ar  
     5    3    9 ar  
     6    4    7 1   
     7    4   10 ar  
     8    5    8 1   
     9    6    8 1   
    10    7    8 1   
    11    1   11 1   
    12    2   12 1   
    13    3   13 1   
    14    5   14 1   
    15    5   15 1   
    16    5   16 1   
    17    6   17 1   
    18    6   18 1   
    19    6   19 1   
    20    7   20 1   
    21    7   21 1   
    22    8   22 1   
@<TRIPOS>SUBSTRUCTURE
     1 R0_         1 TEMP              0 ****  ****    0 ROOT
