@<TRIPOS>MOLECULE
heptanal
   22    21     1     0     0
SMALL
No Charge or Current Charge


@<TRIPOS>ATOM
      1 C1          8.3270   -1.0700    1.1190 c         1 MOL      0.559600
      2 C2          0.8210   -0.4480    0.5680 c3        1 MOL     -0.090000
      3 C3          7.1930   -0.4730    0.3270 c3        1 MOL     -0.196900
      4 C4          2.1590   -0.0290   -0.0200 c3        1 MOL     -0.077900
      5 C5          5.8390   -0.8770    0.9010 c3        1 MOL     -0.071700
      6 C6          3.3260   -0.6630    0.7370 c3        1 MOL     -0.076200
      7 C7          4.6700   -0.2660    0.1220 c3        1 MOL     -0.078300
      8 O1          8.1590   -1.7410    2.1320 o         1 MOL     -0.522800
      9 H1          9.3430   -0.8340    0.7590 h4        1 MOL     -0.009000
     10 H2          0.0010    0.0170    0.0120 hc        1 MOL      0.032200
     11 H3          0.7390   -0.1390    1.6150 hc        1 MOL      0.032200
     12 H4          0.6930   -1.5330    0.5190 hc        1 MOL      0.032200
     13 H5          7.3020    0.6170    0.3010 hc        1 MOL      0.067100
     14 H6          7.2850   -0.8470   -0.6990 hc        1 MOL      0.067100
     15 H7          2.2420    1.0630    0.0160 hc        1 MOL      0.038100
     16 H8          2.1960   -0.3230   -1.0750 hc        1 MOL      0.038100
     17 H9          5.7580   -1.9700    0.8690 hc        1 MOL      0.048100
     18 H10         5.7740   -0.5800    1.9550 hc        1 MOL      0.048100
     19 H11         3.2960   -0.3490    1.7880 hc        1 MOL      0.039000
     20 H12         3.2240   -1.7550    0.7230 hc        1 MOL      0.039000
     21 H13         4.7090   -0.6010   -0.9210 hc        1 MOL      0.041100
     22 H14         4.7570    0.8270    0.1150 hc        1 MOL      0.041100
@<TRIPOS>BOND
     1    1    3 1   
     2    1    8 2   
     3    2    4 1   
     4    3    5 1   
     5    4    6 1   
     6    5    7 1   
     7    6    7 1   
     8    1    9 1   
     9    2   10 1   
    10    2   11 1   
    11    2   12 1   
    12    3   13 1   
    13    3   14 1   
    14    4   15 1   
    15    4   16 1   
    16    5   17 1   
    17    5   18 1   
    18    6   19 1   
    19    6   20 1   
    20    7   21 1   
    21    7   22 1   
@<TRIPOS>SUBSTRUCTURE
     1 R0_         1 TEMP              0 ****  ****    0 ROOT
