@<TRIPOS>MOLECULE
n_heptane
   23    22     1     0     0
SMALL
No Charge or Current Charge


@<TRIPOS>ATOM
      1 C1          1.3980    1.0560   -1.8400 c3        1 MOL     -0.089600
      2 C2          5.1830   -4.2030    2.1260 c3        1 MOL     -0.089600
      3 C3          1.4700   -0.4060   -1.4280 c3        1 MOL     -0.077800
      4 C4          3.9720   -3.9280    1.2490 c3        1 MOL     -0.077800
      5 C5          2.6410   -0.7220   -0.4960 c3        1 MOL     -0.076700
      6 C6          3.8950   -2.4550    0.8460 c3        1 MOL     -0.076700
      7 C7          2.6940   -2.1890   -0.0640 c3        1 MOL     -0.076500
      8 H1          0.6030    1.1990   -2.5790 hc        1 MOL      0.031300
      9 H2          2.3410    1.3850   -2.2880 hc        1 MOL      0.031300
     10 H3          1.1750    1.7030   -0.9870 hc        1 MOL      0.031300
     11 H4          6.1120   -3.9580    1.6010 hc        1 MOL      0.031300
     12 H5          5.1430   -3.6140    3.0470 hc        1 MOL      0.031300
     13 H6          5.2190   -5.2620    2.4010 hc        1 MOL      0.031300
     14 H7          1.5720   -1.0170   -2.3330 hc        1 MOL      0.037100
     15 H8          0.5260   -0.6980   -0.9540 hc        1 MOL      0.037100
     16 H9          3.0630   -4.2140    1.7910 hc        1 MOL      0.037100
     17 H10         4.0270   -4.5560    0.3520 hc        1 MOL      0.037100
     18 H11         3.5720   -0.4680   -1.0180 hc        1 MOL      0.037900
     19 H12         2.5910   -0.0760    0.3900 hc        1 MOL      0.037900
     20 H13         3.8210   -1.8320    1.7460 hc        1 MOL      0.037900
     21 H14         4.8190   -2.1670    0.3300 hc        1 MOL      0.037900
     22 H15         1.7750   -2.4560    0.4690 hc        1 MOL      0.038300
     23 H16         2.7560   -2.8310   -0.9500 hc        1 MOL      0.038300
@<TRIPOS>BOND
     1    1    3 1   
     2    2    4 1   
     3    3    5 1   
     4    4    6 1   
     5    5    7 1   
     6    6    7 1   
     7    1    8 1   
     8    1    9 1   
     9    1   10 1   
    10    2   11 1   
    11    2   12 1   
    12    2   13 1   
    13    3   14 1   
    14    3   15 1   
    15    4   16 1   
    16    4   17 1   
    17    5   18 1   
    18    5   19 1   
    19    6   20 1   
    20    6   21 1   
    21    7   22 1   
    22    7   23 1   
@<TRIPOS>SUBSTRUCTURE
     1 R0_         1 TEMP              0 ****  ****    0 ROOT
