@<TRIPOS>MOLECULE
2_chloropyridine
   11    11     1     0     0
SMALL
No Charge or Current Charge


@<TRIPOS>ATOM
      1 C1          1.2860   -0.0600    1.7330 ca        1 MOL     -0.085600
      2 C2          0.1840   -0.4390    0.9740 ca        1 MOL     -0.247500
      3 C3          1.4970   -0.6400    2.9790 ca        1 MOL     -0.235600
      4 C4         -0.6700   -1.3940    1.5010 ca        1 MOL      0.407500
      5 C5          0.5840   -1.5860    3.4170 ca        1 MOL      0.488700
      6 N1         -0.4980   -1.9790    2.7080 nb        1 MOL     -0.654400
      7 Cl1         0.7640   -2.3530    4.9410 cl        1 MOL     -0.151400
      8 H1          1.9790    0.6850    1.3550 ha        1 MOL      0.143800
      9 H2          0.0000   -0.0010   -0.0000 ha        1 MOL      0.148300
     10 H3          2.3530   -0.3510    3.5800 ha        1 MOL      0.157000
     11 H4         -1.5430   -1.7240    0.9490 h4        1 MOL      0.029100
@<TRIPOS>BOND
     1    1    2 ar  
     2    1    3 ar  
     3    2    4 ar  
     4    3    5 ar  
     5    4    6 ar  
     6    5    6 ar  
     7    5    7 1   
     8    1    8 1   
     9    2    9 1   
    10    3   10 1   
    11    4   11 1   
@<TRIPOS>SUBSTRUCTURE
     1 R0_         1 TEMP              0 ****  ****    0 ROOT
