@<TRIPOS>MOLECULE
dimethyl_sulfide
    9     8     1     0     0
SMALL
No Charge or Current Charge


@<TRIPOS>ATOM
      1 C1          0.9860   -0.3290    0.3400 c3        1 MOL     -0.041800
      2 C2          2.8850   -0.4870    2.3100 c3        1 MOL     -0.041800
      3 S1          1.2240    0.1820    2.0580 ss        1 MOL     -0.282100
      4 H1          1.9250   -0.2330   -0.2100 h1        1 MOL      0.061000
      5 H2          0.2300    0.3020   -0.1330 h1        1 MOL      0.061000
      6 H3          0.6550   -1.3700    0.3050 h1        1 MOL      0.061000
      7 H4          3.6330    0.2750    2.0740 h1        1 MOL      0.061000
      8 H5          3.0400   -1.3510    1.6600 h1        1 MOL      0.061000
      9 H6          3.0070   -0.7960    3.3510 h1        1 MOL      0.061000
@<TRIPOS>BOND
     1    1    3 1   
     2    2    3 1   
     3    1    4 1   
     4    1    5 1   
     5    1    6 1   
     6    2    7 1   
     7    2    8 1   
     8    2    9 1   
@<TRIPOS>SUBSTRUCTURE
     1 R0_         1 TEMP              0 ****  ****    0 ROOT
