@<TRIPOS>MOLECULE
di_n_propyl_ether
   21    20     1     0     0
SMALL
No Charge or Current Charge


@<TRIPOS>ATOM
      1 C1         -1.2010   -0.8990    2.8900 c3        1 MOL     -0.089100
      2 C2          6.0770   -2.0270    3.3150 c3        1 MOL     -0.089100
      3 C3          0.1100   -0.6530    3.6140 c3        1 MOL     -0.082700
      4 C4          4.8250   -1.4000    3.9010 c3        1 MOL     -0.082700
      5 C5          1.2750   -1.3490    2.9270 c3        1 MOL      0.132400
      6 C6          3.5920   -1.7170    3.0680 c3        1 MOL      0.132400
      7 O1          2.4630   -1.0900    3.6620 os        1 MOL     -0.424700
      8 H1         -1.4360   -1.9680    2.8550 hc        1 MOL      0.034900
      9 H2         -2.0210   -0.3880    3.4050 hc        1 MOL      0.034900
     10 H3         -1.1590   -0.5230    1.8630 hc        1 MOL      0.034900
     11 H4          6.2650   -1.6570    2.3030 hc        1 MOL      0.034900
     12 H5          6.9480   -1.7830    3.9320 hc        1 MOL      0.034900
     13 H6          5.9870   -3.1170    3.2720 hc        1 MOL      0.034900
     14 H7          0.0330   -1.0000    4.6510 hc        1 MOL      0.048500
     15 H8          0.3070    0.4240    3.6710 hc        1 MOL      0.048500
     16 H9          4.9510   -0.3130    3.9720 hc        1 MOL      0.048500
     17 H10         4.6760   -1.7540    4.9280 hc        1 MOL      0.048500
     18 H11         1.1170   -2.4320    2.8910 h1        1 MOL      0.025000
     19 H12         1.4080   -0.9750    1.9070 h1        1 MOL      0.025000
     20 H13         3.7020   -1.3390    2.0460 h1        1 MOL      0.025000
     21 H14         3.4120   -2.7960    3.0310 h1        1 MOL      0.025000
@<TRIPOS>BOND
     1    1    3 1   
     2    2    4 1   
     3    3    5 1   
     4    4    6 1   
     5    5    7 1   
     6    6    7 1   
     7    1    8 1   
     8    1    9 1   
     9    1   10 1   
    10    2   11 1   
    11    2   12 1   
    12    2   13 1   
    13    3   14 1   
    14    3   15 1   
    15    4   16 1   
    16    4   17 1   
    17    5   18 1   
    18    5   19 1   
    19    6   20 1   
    20    6   21 1   
@<TRIPOS>SUBSTRUCTURE
     1 R0_         1 TEMP              0 ****  ****    0 ROOT
