@<TRIPOS>MOLECULE
oct_1_yne
   22    21     1     0     0
SMALL
No Charge or Current Charge


@<TRIPOS>ATOM
      1 C1         -4.9720    3.2430   -6.2020 c1        1 MOL     -0.162600
      2 C2         -4.4140    2.2590   -5.8010 c1        1 MOL     -0.130300
      3 C3         -0.6980   -0.8410   -0.0460 c3        1 MOL     -0.089800
      4 C4         -3.7330    1.0520   -5.3130 c3        1 MOL     -0.009400
      5 C5         -1.1950   -1.0250   -1.4720 c3        1 MOL     -0.078100
      6 C6         -3.2350    1.2400   -3.8800 c3        1 MOL     -0.073700
      7 C7         -1.9660    0.2020   -1.9580 c3        1 MOL     -0.077200
      8 C8         -2.4920    0.0000   -3.3800 c3        1 MOL     -0.078500
      9 H1         -5.4690    4.1160   -6.5570 ha        1 MOL      0.163000
     10 H2         -0.0250    0.0190    0.0270 hc        1 MOL      0.031900
     11 H3         -0.1500   -1.7300    0.2810 hc        1 MOL      0.031900
     12 H4         -1.5340   -0.6840    0.6430 hc        1 MOL      0.031900
     13 H5         -4.4210    0.2000   -5.3580 hc        1 MOL      0.057300
     14 H6         -2.8880    0.8180   -5.9720 hc        1 MOL      0.057300
     15 H7         -0.3380   -1.2110   -2.1300 hc        1 MOL      0.037600
     16 H8         -1.8380   -1.9110   -1.5170 hc        1 MOL      0.037600
     17 H9         -4.0840    1.4520   -3.2180 hc        1 MOL      0.046800
     18 H10        -2.5710    2.1130   -3.8300 hc        1 MOL      0.046800
     19 H11        -1.3120    1.0820   -1.9300 hc        1 MOL      0.039900
     20 H12        -2.8050    0.4010   -1.2810 hc        1 MOL      0.039900
     21 H13        -3.1650   -0.8650   -3.4030 hc        1 MOL      0.038900
     22 H14        -1.6550   -0.2230   -4.0530 hc        1 MOL      0.038900
@<TRIPOS>BOND
     1    1    2 3   
     2    2    4 1   
     3    3    5 1   
     4    4    6 1   
     5    5    7 1   
     6    6    8 1   
     7    7    8 1   
     8    1    9 1   
     9    3   10 1   
    10    3   11 1   
    11    3   12 1   
    12    4   13 1   
    13    4   14 1   
    14    5   15 1   
    15    5   16 1   
    16    6   17 1   
    17    6   18 1   
    18    7   19 1   
    19    7   20 1   
    20    8   21 1   
    21    8   22 1   
@<TRIPOS>SUBSTRUCTURE
     1 R0_         1 TEMP              0 ****  ****    0 ROOT
