@<TRIPOS>MOLECULE
1_bromohexane
   20    19     1     0     0
SMALL
No Charge or Current Charge


@<TRIPOS>ATOM
      1 C1          0.6380   -0.6730    0.5820 c3        1 MOL     -0.090100
      2 C2         -0.0410   -1.0400    1.8910 c3        1 MOL     -0.078200
      3 C3          0.8440   -1.9480    2.7460 c3        1 MOL     -0.077200
      4 C4          0.1440   -2.3420    4.0480 c3        1 MOL     -0.079300
      5 C5          1.0440   -3.2290    4.9150 c3        1 MOL     -0.078200
      6 C6          0.3550   -3.7250    6.1770 c3        1 MOL     -0.005700
      7 Br1         1.5380   -4.8560    7.2310 br        1 MOL     -0.181200
      8 H1          1.5780   -0.1420    0.7620 hc        1 MOL      0.032400
      9 H2         -0.0110   -0.0220   -0.0120 hc        1 MOL      0.032400
     10 H3          0.8560   -1.5680   -0.0110 hc        1 MOL      0.032400
     11 H4         -0.2760   -0.1230    2.4440 hc        1 MOL      0.038700
     12 H5         -0.9910   -1.5420    1.6760 hc        1 MOL      0.038700
     13 H6          1.7850   -1.4330    2.9750 hc        1 MOL      0.039800
     14 H7          1.1000   -2.8510    2.1780 hc        1 MOL      0.039800
     15 H8         -0.7840   -2.8780    3.8160 hc        1 MOL      0.043200
     16 H9         -0.1350   -1.4340    4.5950 hc        1 MOL      0.043200
     17 H10         1.9660   -2.6910    5.1670 hc        1 MOL      0.053900
     18 H11         1.3410   -4.1040    4.3240 hc        1 MOL      0.053900
     19 H12         0.0270   -2.9070    6.8230 h1        1 MOL      0.070900
     20 H13        -0.5050   -4.3520    5.9270 h1        1 MOL      0.070900
@<TRIPOS>BOND
     1    1    2 1   
     2    2    3 1   
     3    3    4 1   
     4    4    5 1   
     5    5    6 1   
     6    6    7 1   
     7    1    8 1   
     8    1    9 1   
     9    1   10 1   
    10    2   11 1   
    11    2   12 1   
    12    3   13 1   
    13    3   14 1   
    14    4   15 1   
    15    4   16 1   
    16    5   17 1   
    17    5   18 1   
    18    6   19 1   
    19    6   20 1   
@<TRIPOS>SUBSTRUCTURE
     1 R0_         1 TEMP              0 ****  ****    0 ROOT
