@<TRIPOS>MOLECULE
di_n_butylamine
   28    27     1     0     0
SMALL
No Charge or Current Charge


@<TRIPOS>ATOM
      1 C1          3.4280    0.0980   -2.2480 c3        1 MOL     -0.089900
      2 C2         -3.4350    6.3890   -5.7320 c3        1 MOL     -0.089900
      3 C3          2.6490    1.3740   -1.9720 c3        1 MOL     -0.075400
      4 C4         -2.5370    6.0480   -4.5540 c3        1 MOL     -0.075400
      5 C5          1.7010    1.7130   -3.1220 c3        1 MOL     -0.078400
      6 C6         -1.6920    4.8050   -4.8340 c3        1 MOL     -0.078400
      7 C7          0.8960    2.9760   -2.8210 c3        1 MOL      0.171400
      8 C8         -0.7660    4.4900   -3.6600 c3        1 MOL      0.171400
      9 N1          0.0140    3.2930   -3.9380 n3        1 MOL     -0.833200
     10 H1          4.0990   -0.1240   -1.4130 hc        1 MOL      0.031700
     11 H2          2.7520   -0.7540   -2.3770 hc        1 MOL      0.031700
     12 H3          4.0340    0.1970   -3.1540 hc        1 MOL      0.031700
     13 H4         -4.0300    7.2800   -5.5100 hc        1 MOL      0.031700
     14 H5         -2.8440    6.5910   -6.6310 hc        1 MOL      0.031700
     15 H6         -4.1240    5.5670   -5.9520 hc        1 MOL      0.031700
     16 H7          2.0790    1.2540   -1.0430 hc        1 MOL      0.040100
     17 H8          3.3540    2.1990   -1.8150 hc        1 MOL      0.040100
     18 H9         -1.8830    6.9020   -4.3410 hc        1 MOL      0.040100
     19 H10        -3.1570    5.8840   -3.6650 hc        1 MOL      0.040100
     20 H11         2.2800    1.8520   -4.0440 hc        1 MOL      0.041800
     21 H12         1.0190    0.8690   -3.2940 hc        1 MOL      0.041800
     22 H13        -2.3520    3.9500   -5.0270 hc        1 MOL      0.041800
     23 H14        -1.0980    4.9650   -5.7440 hc        1 MOL      0.041800
     24 H15         0.2980    2.8370   -1.9140 h1        1 MOL      0.025600
     25 H16         1.5720    3.8210   -2.6500 h1        1 MOL      0.025600
     26 H17        -0.0880    5.3310   -3.4760 h1        1 MOL      0.025600
     27 H18        -1.3540    4.3300   -2.7500 h1        1 MOL      0.025600
     28 H19         0.5760    3.4440   -4.7750 hn        1 MOL      0.357400
@<TRIPOS>BOND
     1    1    3 1   
     2    2    4 1   
     3    3    5 1   
     4    4    6 1   
     5    5    7 1   
     6    6    8 1   
     7    7    9 1   
     8    8    9 1   
     9    1   10 1   
    10    1   11 1   
    11    1   12 1   
    12    2   13 1   
    13    2   14 1   
    14    2   15 1   
    15    3   16 1   
    16    3   17 1   
    17    4   18 1   
    18    4   19 1   
    19    5   20 1   
    20    5   21 1   
    21    6   22 1   
    22    6   23 1   
    23    7   24 1   
    24    7   25 1   
    25    8   26 1   
    26    8   27 1   
    27    9   28 1   
@<TRIPOS>SUBSTRUCTURE
     1 R0_         1 TEMP              0 ****  ****    0 ROOT
