@<TRIPOS>MOLECULE
2_bromo_2_methylpropane
   14    13     1     0     0
SMALL
No Charge or Current Charge


@<TRIPOS>ATOM
      1 C1          0.7480    0.2210   -0.7700 c3        1 MOL     -0.090800
      2 C2         -0.9010    1.6390   -2.0420 c3        1 MOL     -0.090800
      3 C3          1.5700    1.8970   -2.4620 c3        1 MOL     -0.090800
      4 C4          0.4950    1.5770   -1.4260 c3        1 MOL      0.051800
      5 Br1         0.5910    2.9540   -0.0160 br        1 MOL     -0.206300
      6 H1          1.7330    0.1830   -0.2920 hc        1 MOL      0.047400
      7 H2         -0.0000    0.0000    0.0000 hc        1 MOL      0.047400
      8 H3          0.7080   -0.5850   -1.5120 hc        1 MOL      0.047400
      9 H4         -1.6800    1.4490   -1.2940 hc        1 MOL      0.047400
     10 H5         -1.1030    2.6210   -2.4840 hc        1 MOL      0.047400
     11 H6         -1.0120    0.8890   -2.8340 hc        1 MOL      0.047400
     12 H7          2.5720    1.8930   -2.0180 hc        1 MOL      0.047400
     13 H8          1.4140    2.8840   -2.9130 hc        1 MOL      0.047400
     14 H9          1.5640    1.1580   -3.2720 hc        1 MOL      0.047400
@<TRIPOS>BOND
     1    1    4 1   
     2    2    4 1   
     3    3    4 1   
     4    4    5 1   
     5    1    6 1   
     6    1    7 1   
     7    1    8 1   
     8    2    9 1   
     9    2   10 1   
    10    2   11 1   
    11    3   12 1   
    12    3   13 1   
    13    3   14 1   
@<TRIPOS>SUBSTRUCTURE
     1 R0_         1 TEMP              0 ****  ****    0 ROOT
