@<TRIPOS>MOLECULE
hexa_15_diene
   16    15     1     0     0
SMALL
No Charge or Current Charge


@<TRIPOS>ATOM
      1 C1         -6.2840    2.7560    1.9800 c2        1 MOL     -0.223100
      2 C2         -2.0320    3.7240    1.7420 c2        1 MOL     -0.223100
      3 C3         -5.5550    2.7020    0.8590 c2        1 MOL     -0.165100
      4 C4         -2.5850    2.5130    1.6110 c2        1 MOL     -0.165100
      5 C5         -4.6460    1.5610    0.5030 c3        1 MOL     -0.044700
      6 C6         -3.1870    2.0000    0.3340 c3        1 MOL     -0.044700
      7 H1         -6.9290    3.6000    2.1970 ha        1 MOL      0.110700
      8 H2         -6.2450    1.9460    2.7000 ha        1 MOL      0.110700
      9 H3         -1.6080    4.0550    2.6840 ha        1 MOL      0.110700
     10 H4         -1.9940    4.4050    0.8990 ha        1 MOL      0.110700
     11 H5         -5.6260    3.5240    0.1520 ha        1 MOL      0.118700
     12 H6         -2.5970    1.8490    2.4710 ha        1 MOL      0.118700
     13 H7         -4.9960    1.1360   -0.4450 hc        1 MOL      0.046400
     14 H8         -4.7130    0.7580    1.2480 hc        1 MOL      0.046400
     15 H9         -3.1100    2.7470   -0.4650 hc        1 MOL      0.046400
     16 H10        -2.5960    1.1340    0.0090 hc        1 MOL      0.046400
@<TRIPOS>BOND
     1    1    3 2   
     2    2    4 2   
     3    3    5 1   
     4    4    6 1   
     5    5    6 1   
     6    1    7 1   
     7    1    8 1   
     8    2    9 1   
     9    2   10 1   
    10    3   11 1   
    11    4   12 1   
    12    5   13 1   
    13    5   14 1   
    14    6   15 1   
    15    6   16 1   
@<TRIPOS>SUBSTRUCTURE
     1 R0_         1 TEMP              0 ****  ****    0 ROOT
