@<TRIPOS>MOLECULE
4-nitroaniline
   16    16     1     0     0
SMALL
No Charge or Current Charge


@<TRIPOS>ATOM
      1 C1          1.8850   -1.0360   -0.1120 ca        1 MOL     -0.224900
      2 C2          2.8780   -1.6520    2.0020 ca        1 MOL     -0.225000
      3 C3          0.8070   -0.4630    0.5610 ca        1 MOL     -0.016500
      4 C4          1.8000   -1.0790    2.6760 ca        1 MOL     -0.016500
      5 C5          2.9210   -1.6310    0.6080 ca        1 MOL      0.222300
      6 C6          0.7640   -0.4840    1.9550 ca        1 MOL     -0.242900
      7 N1          4.0110   -2.2110   -0.0730 nh        1 MOL     -0.849400
      8 N2         -0.3340    0.1000    2.6410 no        1 MOL      0.622800
      9 O1         -1.2550    0.6300    1.9740 o         1 MOL     -0.370300
     10 O2         -0.3530    0.0700    3.8950 o         1 MOL     -0.370400
     11 H1          1.9090   -1.0150   -1.1990 ha        1 MOL      0.144800
     12 H2          3.6810   -2.1120    2.5730 ha        1 MOL      0.145000
     13 H3          0.0060   -0.0030   -0.0130 ha        1 MOL      0.167900
     14 H4          1.7800   -1.1020    3.7630 ha        1 MOL      0.167800
     15 H5          4.0080   -2.2310   -1.0730 hn        1 MOL      0.422700
     16 H6          4.7240   -2.6750    0.4540 hn        1 MOL      0.422700
@<TRIPOS>BOND
     1    1    3 ar  
     2    1    5 ar  
     3    2    4 ar  
     4    2    5 ar  
     5    3    6 ar  
     6    4    6 ar  
     7    5    7 1   
     8    6    8 1   
     9    8    9 1   
    10    8   10 1   
    11    1   11 1   
    12    2   12 1   
    13    3   13 1   
    14    4   14 1   
    15    7   15 1   
    16    7   16 1   
@<TRIPOS>SUBSTRUCTURE
     1 MOL         1 TEMP              0 ****  ****    0 ROOT
