@<TRIPOS>MOLECULE
2_chlorotoluene
   15    15     1     0     0
SMALL
No Charge or Current Charge


@<TRIPOS>ATOM
      1 C1          1.8850   -1.0380   -0.1090 ca        1 MOL     -0.125600
      2 C2          0.8180   -0.4410    0.5630 ca        1 MOL     -0.127400
      3 C3          2.9350   -1.6040    0.6140 ca        1 MOL     -0.124100
      4 C4          0.8010   -0.4100    1.9570 ca        1 MOL     -0.121100
      5 C5          2.9180   -1.5730    2.0080 ca        1 MOL     -0.056600
      6 C6          1.8510   -0.9770    2.6800 ca        1 MOL      0.014400
      7 C7          4.0620   -2.1910    2.7450 c3        1 MOL     -0.062900
      8 Cl1         1.7950   -0.9200    4.4040 cl        1 MOL     -0.099100
      9 H1          1.8980   -1.0610   -1.1950 ha        1 MOL      0.134700
     10 H2          0.0000   -0.0000   -0.0000 ha        1 MOL      0.136400
     11 H3          3.7610   -2.0660    0.0800 ha        1 MOL      0.136000
     12 H4         -0.0380    0.0580    2.4650 ha        1 MOL      0.145800
     13 H5          4.5640   -1.4380    3.3640 hc        1 MOL      0.049900
     14 H6          3.7210   -3.0060    3.3940 hc        1 MOL      0.049900
     15 H7          4.7950   -2.6190    2.0510 hc        1 MOL      0.049900
@<TRIPOS>BOND
     1    1    2 ar  
     2    1    3 ar  
     3    2    4 ar  
     4    3    5 ar  
     5    4    6 ar  
     6    5    6 ar  
     7    5    7 1   
     8    6    8 1   
     9    1    9 1   
    10    2   10 1   
    11    3   11 1   
    12    4   12 1   
    13    7   13 1   
    14    7   14 1   
    15    7   15 1   
@<TRIPOS>SUBSTRUCTURE
     1 R0_         1 TEMP              0 ****  ****    0 ROOT
