@<TRIPOS>MOLECULE
methyl_isopropyl_ether
   15    14     1     0     0
SMALL
No Charge or Current Charge


@<TRIPOS>ATOM
      1 C1          1.0770    0.0500    0.1960 c3        1 MOL     -0.111300
      2 C2          2.8430    1.0380    1.6980 c3        1 MOL     -0.111300
      3 C3         -0.5910    2.1670    0.9830 c3        1 MOL      0.119900
      4 C4          1.3530    0.9190    1.4130 c3        1 MOL      0.138300
      5 O1          0.8120    2.2180    1.1940 os        1 MOL     -0.421800
      6 H1          1.4530   -0.9670    0.3400 hc        1 MOL      0.041700
      7 H2          0.0000    0.0000    0.0000 hc        1 MOL      0.041700
      8 H3          1.5400    0.4710   -0.7030 hc        1 MOL      0.041700
      9 H4          3.2880    0.0590    1.8990 hc        1 MOL      0.041700
     10 H5          3.0140    1.6860    2.5640 hc        1 MOL      0.041700
     11 H6          3.3700    1.4960    0.8530 hc        1 MOL      0.041700
     12 H7         -0.7950    1.9580   -0.0700 h1        1 MOL      0.030100
     13 H8         -1.0390    3.1220    1.2690 h1        1 MOL      0.030100
     14 H9         -1.0140    1.3700    1.5990 h1        1 MOL      0.030100
     15 H10         0.8470    0.4960    2.2870 h1        1 MOL      0.045600
@<TRIPOS>BOND
     1    1    4 1   
     2    2    4 1   
     3    3    5 1   
     4    4    5 1   
     5    1    6 1   
     6    1    7 1   
     7    1    8 1   
     8    2    9 1   
     9    2   10 1   
    10    2   11 1   
    11    3   12 1   
    12    3   13 1   
    13    3   14 1   
    14    4   15 1   
@<TRIPOS>SUBSTRUCTURE
     1 R0_         1 TEMP              0 ****  ****    0 ROOT
