@<TRIPOS>MOLECULE
CUP08057_AM1BCC_v1_0
   34    33     1     0     0
SMALL
No Charge or Current Charge


@<TRIPOS>ATOM
      1 C1         -0.8490   -1.5250    2.4480 c         1 MOL      0.683500
      2 C2          0.6520   -0.0080   -1.7770 c3        1 MOL     -0.090000
      3 C3         -3.6640    2.0710    2.8720 c3        1 MOL     -0.090000
      4 C4          0.7610   -6.2460    4.0640 c3        1 MOL     -0.088100
      5 C5          0.4720    0.0090   -0.2680 c3        1 MOL     -0.099600
      6 C6         -3.1410    0.7840    2.2550 c3        1 MOL     -0.099600
      7 C7          0.5910   -5.3660    2.8340 c3        1 MOL     -0.072200
      8 C8         -0.9270   -0.4630    0.1320 c3        1 MOL      0.093100
      9 C9         -1.6140    0.7780    2.1840 c3        1 MOL      0.093100
     10 C10         0.0050   -4.0060    3.2090 c3        1 MOL      0.000300
     11 N1         -1.1060   -0.4580    1.5890 n         1 MOL     -0.462400
     12 O1         -1.0600   -1.4780    3.6560 o         1 MOL     -0.605000
     13 S1         -0.1830   -2.9820    1.7200 ss        1 MOL     -0.270000
     14 H1          0.5220   -1.0190   -2.1760 hc        1 MOL      0.035100
     15 H2         -0.0720    0.6510   -2.2660 hc        1 MOL      0.035100
     16 H3          1.6570    0.3350   -2.0430 hc        1 MOL      0.035100
     17 H4         -3.2860    2.1990    3.8920 hc        1 MOL      0.035100
     18 H5         -3.3600    2.9410    2.2810 hc        1 MOL      0.035100
     19 H6         -4.7570    2.0550    2.9150 hc        1 MOL      0.035100
     20 H7          1.4370   -5.7810    4.7890 hc        1 MOL      0.036800
     21 H8         -0.2010   -6.4250    4.5550 hc        1 MOL      0.036800
     22 H9          1.1830   -7.2150    3.7800 hc        1 MOL      0.036800
     23 H10         0.6450    1.0250    0.1040 hc        1 MOL      0.048000
     24 H11         1.2360   -0.6260    0.1940 hc        1 MOL      0.048000
     25 H12        -3.5650    0.6670    1.2510 hc        1 MOL      0.048000
     26 H13        -3.4930   -0.0700    2.8460 hc        1 MOL      0.048000
     27 H14        -0.0650   -5.8810    2.1210 hc        1 MOL      0.051200
     28 H15         1.5680   -5.2410    2.3530 hc        1 MOL      0.051200
     29 H16        -1.6870    0.1930   -0.3090 h1        1 MOL      0.058300
     30 H17        -1.1220   -1.4620   -0.2690 h1        1 MOL      0.058300
     31 H18        -1.2500    1.6290    1.5950 h1        1 MOL      0.058300
     32 H19        -1.1990    0.8920    3.1920 h1        1 MOL      0.058300
     33 H20        -0.9740   -4.1380    3.6820 h1        1 MOL      0.079200
     34 H21         0.6680   -3.4960    3.9160 h1        1 MOL      0.079200
@<TRIPOS>BOND
     1    1   11 1   
     2    1   12 2   
     3    1   13 1   
     4    2    5 1   
     5    3    6 1   
     6    4    7 1   
     7    5    8 1   
     8    6    9 1   
     9    7   10 1   
    10    8   11 1   
    11    9   11 1   
    12   10   13 1   
    13    2   14 1   
    14    2   15 1   
    15    2   16 1   
    16    3   17 1   
    17    3   18 1   
    18    3   19 1   
    19    4   20 1   
    20    4   21 1   
    21    4   22 1   
    22    5   23 1   
    23    5   24 1   
    24    6   25 1   
    25    6   26 1   
    26    7   27 1   
    27    7   28 1   
    28    8   29 1   
    29    8   30 1   
    30    9   31 1   
    31    9   32 1   
    32   10   33 1   
    33   10   34 1   
@<TRIPOS>SUBSTRUCTURE
     1 R0_         1 TEMP              0 ****  ****    0 ROOT
