@<TRIPOS>MOLECULE
cyclopentene
   13    13     1     0     0
SMALL
No Charge or Current Charge


@<TRIPOS>ATOM
      1 C1          1.0670    0.0410    0.1620 c2        1 MOL     -0.180000
      2 C2          1.8540   -1.0340    0.2660 c2        1 MOL     -0.180000
      3 C3          1.8330    1.3080    0.3410 c3        1 MOL     -0.054000
      4 C4          3.2730   -0.6590    0.5310 c3        1 MOL     -0.054000
      5 C5          3.2860    0.8430    0.2490 c3        1 MOL     -0.081100
      6 H1          0.0000   -0.0000   -0.0000 ha        1 MOL      0.135800
      7 H2          1.5040   -2.0540    0.1980 ha        1 MOL      0.135800
      8 H3          1.6020    2.0380   -0.4410 hc        1 MOL      0.048100
      9 H4          1.6130    1.7510    1.3170 hc        1 MOL      0.048100
     10 H5          3.5360   -0.8760    1.5710 hc        1 MOL      0.048100
     11 H6          3.9660   -1.1890   -0.1290 hc        1 MOL      0.048100
     12 H7          3.6690    1.0270   -0.7630 hc        1 MOL      0.042700
     13 H8          3.9370    1.3870    0.9420 hc        1 MOL      0.042700
@<TRIPOS>BOND
     1    1    2 2   
     2    1    3 1   
     3    2    4 1   
     4    3    5 1   
     5    4    5 1   
     6    1    6 1   
     7    2    7 1   
     8    3    8 1   
     9    3    9 1   
    10    4   10 1   
    11    4   11 1   
    12    5   12 1   
    13    5   13 1   
@<TRIPOS>SUBSTRUCTURE
     1 R0_         1 TEMP              0 ****  ****    0 ROOT
