@<TRIPOS>MOLECULE
CUP08028_AM1BCC_v1_0
   29    29     1     0     0
SMALL
No Charge or Current Charge


@<TRIPOS>ATOM
      1 C1         -1.4830   -1.1840    0.9200 ca        1 MOL     -0.007300
      2 C2         -2.8980   -3.0880    1.4600 ca        1 MOL      0.021200
      3 C3         -1.6390   -0.6630    2.2200 ca        1 MOL     -0.106000
      4 C4         -2.1060   -2.3840    0.5480 ca        1 MOL     -0.226500
      5 C5         -3.0620   -2.5770    2.7570 ca        1 MOL     -0.288500
      6 C6         -2.4380   -1.3720    3.1400 ca        1 MOL      0.259700
      7 C7          1.2100   -0.4460    3.4410 c3        1 MOL     -0.092100
      8 C8         -1.4900    1.8070    1.7630 c3        1 MOL     -0.090100
      9 C9          0.5900    0.5700    2.4890 c3        1 MOL     -0.074800
     10 C10        -0.9480    0.6440    2.6050 c3        1 MOL     -0.030900
     11 N1         -1.9230   -2.9050   -0.8140 no        1 MOL      0.323300
     12 N2         -3.8980   -3.3310    3.7010 no        1 MOL      0.328100
     13 O1         -1.2140   -2.2520   -1.5910 o         1 MOL     -0.199800
     14 O2         -2.4910   -3.9680   -1.1010 o         1 MOL     -0.199800
     15 O3         -4.4200   -4.3810    3.3040 o         1 MOL     -0.206700
     16 O4         -4.0320   -2.8680    4.8440 o         1 MOL     -0.206700
     17 O5         -2.5580   -0.8230    4.3910 oh        1 MOL     -0.480600
     18 H1         -0.8680   -0.6450    0.1990 ha        1 MOL      0.185200
     19 H2         -3.3780   -4.0200    1.1650 ha        1 MOL      0.206800
     20 H3          0.9020   -1.4670    3.1970 hc        1 MOL      0.036700
     21 H4          2.3020   -0.4030    3.3740 hc        1 MOL      0.036700
     22 H5          0.9270   -0.2360    4.4770 hc        1 MOL      0.036700
     23 H6         -1.2400    1.6980    0.7020 hc        1 MOL      0.041400
     24 H7         -2.5800    1.8750    1.8450 hc        1 MOL      0.041400
     25 H8         -1.0690    2.7590    2.1060 hc        1 MOL      0.041400
     26 H9          1.0130    1.5550    2.7210 hc        1 MOL      0.045200
     27 H10         0.8980    0.3340    1.4630 hc        1 MOL      0.045200
     28 H11        -1.1750    0.8920    3.6480 hc        1 MOL      0.082400
     29 H12        -3.1270   -1.3790    4.9650 ho        1 MOL      0.478300
@<TRIPOS>BOND
     1    1    3 ar  
     2    1    4 ar  
     3    2    4 ar  
     4    2    5 ar  
     5    3    6 ar  
     6    3   10 1   
     7    4   11 1   
     8    5    6 ar  
     9    5   12 1   
    10    6   17 1   
    11    7    9 1   
    12    8   10 1   
    13    9   10 1   
    14   11   13 1   
    15   11   14 1   
    16   12   15 1   
    17   12   16 1   
    18    1   18 1   
    19    2   19 1   
    20    7   20 1   
    21    7   21 1   
    22    7   22 1   
    23    8   23 1   
    24    8   24 1   
    25    8   25 1   
    26    9   26 1   
    27    9   27 1   
    28   10   28 1   
    29   17   29 1   
@<TRIPOS>SUBSTRUCTURE
     1 R0_         1 TEMP              0 ****  ****    0 ROOT
