@<TRIPOS>MOLECULE
123_trimethylbenzene
   21    21     1     0     0
SMALL
No Charge or Current Charge


@<TRIPOS>ATOM
      1 C1          1.8850   -1.0380   -0.1090 ca        1 MOL     -0.128600
      2 C2          0.8180   -0.4410    0.5630 ca        1 MOL     -0.131900
      3 C3          2.9350   -1.6040    0.6140 ca        1 MOL     -0.131900
      4 C4          0.8010   -0.4100    1.9570 ca        1 MOL     -0.065100
      5 C5          2.9180   -1.5730    2.0080 ca        1 MOL     -0.065100
      6 C6          1.8510   -0.9770    2.6800 ca        1 MOL     -0.066200
      7 C7         -0.3530    0.2340    2.6520 c3        1 MOL     -0.059100
      8 C8          4.0550   -2.1870    2.7590 c3        1 MOL     -0.059100
      9 C9          1.8330   -0.9440    4.1750 c3        1 MOL     -0.061000
     10 H1          1.8970   -1.0620   -1.1950 ha        1 MOL      0.129400
     11 H2          0.0040   -0.0030   -0.0100 ha        1 MOL      0.129200
     12 H3          3.7610   -2.0670    0.0810 ha        1 MOL      0.129200
     13 H4         -0.3030    0.0420    3.7300 hc        1 MOL      0.042100
     14 H5         -0.3570    1.3190    2.4910 hc        1 MOL      0.042100
     15 H6         -1.3090   -0.1480    2.2720 hc        1 MOL      0.042100
     16 H7          4.5590   -1.4300    3.3700 hc        1 MOL      0.042100
     17 H8          3.7060   -2.9930    3.4160 hc        1 MOL      0.042100
     18 H9          4.7890   -2.6290    2.0730 hc        1 MOL      0.042100
     19 H10         2.7350   -0.4520    4.5530 hc        1 MOL      0.042700
     20 H11         0.9550   -0.4030    4.5470 hc        1 MOL      0.042700
     21 H12         1.7840   -1.9580    4.5910 hc        1 MOL      0.042700
@<TRIPOS>BOND
     1    1    2 ar  
     2    1    3 ar  
     3    2    4 ar  
     4    3    5 ar  
     5    4    6 ar  
     6    4    7 1   
     7    5    6 ar  
     8    5    8 1   
     9    6    9 1   
    10    1   10 1   
    11    2   11 1   
    12    3   12 1   
    13    7   13 1   
    14    7   14 1   
    15    7   15 1   
    16    8   16 1   
    17    8   17 1   
    18    8   18 1   
    19    9   19 1   
    20    9   20 1   
    21    9   21 1   
@<TRIPOS>SUBSTRUCTURE
     1 R0_         1 TEMP              0 ****  ****    0 ROOT
