@<TRIPOS>MOLECULE
124_trimethylbenzene
   21    21     1     0     0
SMALL
No Charge or Current Charge


@<TRIPOS>ATOM
      1 C1          1.8740   -1.0530   -0.1330 ca        1 MOL     -0.131800
      2 C2          0.8060   -0.4740    0.5520 ca        1 MOL     -0.123400
      3 C3          2.8760   -1.6930    1.9700 ca        1 MOL     -0.127200
      4 C4          2.9090   -1.6630    0.5760 ca        1 MOL     -0.069300
      5 C5          0.7730   -0.5050    1.9460 ca        1 MOL     -0.073200
      6 C6          1.8080   -1.1140    2.6550 ca        1 MOL     -0.065200
      7 C7          4.0520   -2.2810   -0.1570 c3        1 MOL     -0.059000
      8 C8         -0.3820    0.1200    2.6580 c3        1 MOL     -0.057600
      9 C9          1.7930   -1.1610    4.1480 c3        1 MOL     -0.058600
     10 H1          1.8920   -1.0240   -1.2200 ha        1 MOL      0.129600
     11 H2          0.0040   -0.0020   -0.0100 ha        1 MOL      0.129200
     12 H3          3.6840   -2.1680    2.5220 ha        1 MOL      0.129600
     13 H4          4.8290   -2.6010    0.5480 hc        1 MOL      0.042000
     14 H5          3.7270   -3.1540   -0.7380 hc        1 MOL      0.042000
     15 H6          4.4980   -1.5740   -0.8690 hc        1 MOL      0.042000
     16 H7         -0.3140   -0.0720    3.7350 hc        1 MOL      0.041700
     17 H8         -0.4060    1.2050    2.4970 hc        1 MOL      0.041700
     18 H9         -1.3360   -0.2780    2.2910 hc        1 MOL      0.041700
     19 H10         2.6840   -0.6660    4.5520 hc        1 MOL      0.042000
     20 H11         0.9030   -0.6630    4.5510 hc        1 MOL      0.042000
     21 H12         1.7720   -2.1960    4.5120 hc        1 MOL      0.042000
@<TRIPOS>BOND
     1    1    2 ar  
     2    1    4 ar  
     3    2    5 ar  
     4    3    4 ar  
     5    3    6 ar  
     6    4    7 1   
     7    5    6 ar  
     8    5    8 1   
     9    6    9 1   
    10    1   10 1   
    11    2   11 1   
    12    3   12 1   
    13    7   13 1   
    14    7   14 1   
    15    7   15 1   
    16    8   16 1   
    17    8   17 1   
    18    8   18 1   
    19    9   19 1   
    20    9   20 1   
    21    9   21 1   
@<TRIPOS>SUBSTRUCTURE
     1 R0_         1 TEMP              0 ****  ****    0 ROOT
