@<TRIPOS>MOLECULE
benzotrifluoride
   15    15     1     0     0
SMALL
No Charge or Current Charge


@<TRIPOS>ATOM
      1 C1          1.8850   -1.0380   -0.1090 ca        1 MOL     -0.100200
      2 C2          0.8180   -0.4410    0.5630 ca        1 MOL     -0.134200
      3 C3          2.9350   -1.6040    0.6140 ca        1 MOL     -0.134200
      4 C4          0.8010   -0.4100    1.9570 ca        1 MOL     -0.081400
      5 C5          2.9180   -1.5730    2.0080 ca        1 MOL     -0.081400
      6 C6          1.8510   -0.9770    2.6800 ca        1 MOL     -0.159100
      7 C7          1.8330   -0.9440    4.1710 c3        1 MOL      0.694500
      8 F1          0.7300   -0.3290    4.6920 f         1 MOL     -0.243300
      9 F2          1.8540   -2.1830    4.7450 f         1 MOL     -0.243300
     10 F3          2.9040   -0.2790    4.6940 f         1 MOL     -0.243300
     11 H1          1.8980   -1.0610   -1.1950 ha        1 MOL      0.139300
     12 H2          0.0000    0.0000   -0.0000 ha        1 MOL      0.142200
     13 H3          3.7650   -2.0680    0.0910 ha        1 MOL      0.142200
     14 H4         -0.0350    0.0570    2.4720 ha        1 MOL      0.151100
     15 H5          3.7400   -2.0170    2.5630 ha        1 MOL      0.151100
@<TRIPOS>BOND
     1    1    2 ar  
     2    1    3 ar  
     3    2    4 ar  
     4    3    5 ar  
     5    4    6 ar  
     6    5    6 ar  
     7    6    7 1   
     8    7    8 1   
     9    7    9 1   
    10    7   10 1   
    11    1   11 1   
    12    2   12 1   
    13    3   13 1   
    14    4   14 1   
    15    5   15 1   
@<TRIPOS>SUBSTRUCTURE
     1 R0_         1 TEMP              0 ****  ****    0 ROOT
