@<TRIPOS>MOLECULE
5-trifluoromethyluracil
   15    15     1     0     0
SMALL
No Charge or Current Charge


@<TRIPOS>ATOM
      1 C1          1.1620    1.5070    2.5830 cc        1 MOL      0.122100
      2 C2          0.7830    0.3890    1.9520 cd        1 MOL     -0.376900
      3 C3          1.5360   -0.8690    2.2310 c         1 MOL      0.736000
      4 C4          2.9650    0.4330    3.7940 c         1 MOL      0.804900
      5 C5         -0.3530    0.3290    0.9830 c3        1 MOL      0.723200
      6 N1          2.2040    1.5450    3.4680 n         1 MOL     -0.461100
      7 N2          2.5780   -0.7390    3.1410 n         1 MOL     -0.580600
      8 O1          1.2400   -1.9280    1.6850 o         1 MOL     -0.575600
      9 O2          3.9030    0.4730    4.5900 o         1 MOL     -0.614200
     10 F1         -0.9310    1.5400    0.8370 f         1 MOL     -0.249800
     11 F2          0.0660   -0.0760   -0.2350 f         1 MOL     -0.219700
     12 F3         -1.3050   -0.5340    1.3970 f         1 MOL     -0.219600
     13 H1          0.6610    2.4560    2.4290 h4        1 MOL      0.184700
     14 H2          2.4250    2.4360    3.9020 hn        1 MOL      0.363900
     15 H3          3.1100   -1.5790    3.3520 hn        1 MOL      0.362800
@<TRIPOS>BOND
     1    1    2 2   
     2    1    6 1   
     3    2    3 1   
     4    2    5 1   
     5    3    7 1   
     6    3    8 2   
     7    4    6 1   
     8    4    7 1   
     9    4    9 2   
    10    5   10 1   
    11    5   11 1   
    12    5   12 1   
    13    1   13 1   
    14    6   14 1   
    15    7   15 1   
@<TRIPOS>SUBSTRUCTURE
     1 MOL         1 TEMP              0 ****  ****    0 ROOT
