@<TRIPOS>MOLECULE
d-xylose
   20    20     1     0     0
SMALL
No Charge or Current Charge


@<TRIPOS>ATOM
      1 C1          0.3520   -0.7180   -0.7490 c3        1 MOL      0.094200
      2 C2          0.3580   -2.1200   -0.1520 c3        1 MOL      0.078100
      3 C3          0.9790   -3.1310   -1.1190 c3        1 MOL      0.143500
      4 C4          2.3190   -2.6090   -1.6400 c3        1 MOL      0.101600
      5 C5          2.2080   -1.1750   -2.1650 c3        1 MOL      0.299400
      6 O1          1.6550   -0.3160   -1.1640 os        1 MOL     -0.439400
      7 O2         -0.9850   -2.4860    0.1440 oh        1 MOL     -0.570400
      8 O3          1.2210   -4.3590   -0.4300 oh        1 MOL     -0.558200
      9 O4          2.8090   -3.4530   -2.6760 oh        1 MOL     -0.571900
     10 O5          1.4910   -1.0970   -3.3960 oh        1 MOL     -0.620000
     11 H1         -0.3500   -0.6430   -1.5890 h1        1 MOL      0.059300
     12 H2          0.0010    0.0010   -0.0000 h1        1 MOL      0.069000
     13 H3          0.9190   -2.1200    0.7890 h1        1 MOL      0.039700
     14 H4          0.2950   -3.3680   -1.9400 h1        1 MOL      0.121000
     15 H5          3.0480   -2.6380   -0.8200 h1        1 MOL      0.053200
     16 H6          3.2120   -0.8000   -2.3870 h2        1 MOL      0.072800
     17 H7         -1.3170   -1.8320    0.7790 ho        1 MOL      0.399600
     18 H8          1.8300   -4.1500    0.2940 ho        1 MOL      0.391600
     19 H9          3.6550   -3.0760   -2.9650 ho        1 MOL      0.412800
     20 H10         1.4740   -0.1610   -3.6450 ho        1 MOL      0.424300
@<TRIPOS>BOND
     1    1    2 1   
     2    1    6 1   
     3    2    3 1   
     4    2    7 1   
     5    3    4 1   
     6    3    8 1   
     7    4    5 1   
     8    4    9 1   
     9    5    6 1   
    10    5   10 1   
    11    1   11 1   
    12    1   12 1   
    13    2   13 1   
    14    3   14 1   
    15    4   15 1   
    16    5   16 1   
    17    7   17 1   
    18    8   18 1   
    19    9   19 1   
    20   10   20 1   
@<TRIPOS>SUBSTRUCTURE
     1 DXY         1 TEMP              0 ****  ****    0 ROOT
