@<TRIPOS>MOLECULE
di_n_butyl_ether
   27    26     1     0     0
SMALL
No Charge or Current Charge


@<TRIPOS>ATOM
      1 C1          0.7090   -2.2900   -0.7880 c3        1 MOL     -0.089500
      2 C2         -9.0250   -3.4080   -0.2400 c3        1 MOL     -0.089500
      3 C3         -0.4170   -2.6600    0.1640 c3        1 MOL     -0.077000
      4 C4         -7.7410   -3.5570    0.5600 c3        1 MOL     -0.077000
      5 C5         -1.7780   -2.5830   -0.5230 c3        1 MOL     -0.079000
      6 C6         -6.5170   -3.1830   -0.2720 c3        1 MOL     -0.079000
      7 C7         -2.9050   -2.9950    0.4140 c3        1 MOL      0.133500
      8 C8         -5.2330   -3.2900    0.5370 c3        1 MOL      0.133500
      9 O1         -4.1380   -2.9160   -0.2880 os        1 MOL     -0.426100
     10 H1          0.7350   -2.9670   -1.6480 hc        1 MOL      0.032000
     11 H2          0.5870   -1.2670   -1.1600 hc        1 MOL      0.032000
     12 H3          1.6740   -2.3530   -0.2760 hc        1 MOL      0.032000
     13 H4         -9.1600   -2.3750   -0.5770 hc        1 MOL      0.032000
     14 H5         -9.0170   -4.0590   -1.1200 hc        1 MOL      0.032000
     15 H6         -9.8890   -3.6790    0.3760 hc        1 MOL      0.032000
     16 H7         -0.2490   -3.6750    0.5420 hc        1 MOL      0.041200
     17 H8         -0.3960   -1.9840    1.0260 hc        1 MOL      0.041200
     18 H9         -7.7950   -2.9190    1.4500 hc        1 MOL      0.041200
     19 H10        -7.6520   -4.5930    0.9080 hc        1 MOL      0.041200
     20 H11        -1.9630   -1.5650   -0.8870 hc        1 MOL      0.050300
     21 H12        -1.7920   -3.2260   -1.4120 hc        1 MOL      0.050300
     22 H13        -6.4460   -3.8320   -1.1550 hc        1 MOL      0.050300
     23 H14        -6.6190   -2.1620   -0.6590 hc        1 MOL      0.050300
     24 H15        -2.7670   -4.0240    0.7610 h1        1 MOL      0.023100
     25 H16        -2.9550   -2.3290    1.2820 h1        1 MOL      0.023100
     26 H17        -5.2610   -2.6210    1.4030 h1        1 MOL      0.023100
     27 H18        -5.0730   -4.3160    0.8830 h1        1 MOL      0.023100
@<TRIPOS>BOND
     1    1    3 1   
     2    2    4 1   
     3    3    5 1   
     4    4    6 1   
     5    5    7 1   
     6    6    8 1   
     7    7    9 1   
     8    8    9 1   
     9    1   10 1   
    10    1   11 1   
    11    1   12 1   
    12    2   13 1   
    13    2   14 1   
    14    2   15 1   
    15    3   16 1   
    16    3   17 1   
    17    4   18 1   
    18    4   19 1   
    19    5   20 1   
    20    5   21 1   
    21    6   22 1   
    22    6   23 1   
    23    7   24 1   
    24    7   25 1   
    25    8   26 1   
    26    8   27 1   
@<TRIPOS>SUBSTRUCTURE
     1 R0_         1 TEMP              0 ****  ****    0 ROOT
