@<TRIPOS>MOLECULE
bromomethane
    5     4     1     0     0
SMALL
No Charge or Current Charge


@<TRIPOS>ATOM
      1 C1         -0.5120    0.5190   -0.8110 c3        1 MOL     -0.037100
      2 Br1        -1.9430    1.5710   -0.0430 br        1 MOL     -0.166600
      3 H1          0.1670    1.1980   -1.3280 h1        1 MOL      0.067900
      4 H2          0.0000   -0.0000    0.0000 h1        1 MOL      0.067900
      5 H3         -0.9540   -0.1930   -1.5100 h1        1 MOL      0.067900
@<TRIPOS>BOND
     1    1    2 1   
     2    1    3 1   
     3    1    4 1   
     4    1    5 1   
@<TRIPOS>SUBSTRUCTURE
     1 R0_         1 TEMP              0 ****  ****    0 ROOT
