@<TRIPOS>MOLECULE
2_methoxyethanamine
   14    13     1     0     0
SMALL
No Charge or Current Charge


@<TRIPOS>ATOM
      1 C1          0.2960    3.8860    0.7610 c3        1 MOL      0.118400
      2 C2          0.7870    0.4950   -0.5800 c3        1 MOL      0.137800
      3 C3          0.5390    1.9940   -0.6120 c3        1 MOL      0.121200
      4 N1          0.8130   -0.0510   -1.9290 n3        1 MOL     -0.913300
      5 O1          0.5050    2.4810    0.7230 os        1 MOL     -0.422700
      6 H1         -0.3120    4.1420    1.6320 h1        1 MOL      0.032000
      7 H2         -0.2080    4.2050   -0.1550 h1        1 MOL      0.032000
      8 H3          1.2640    4.3870    0.8350 h1        1 MOL      0.032000
      9 H4          1.7340    0.2830   -0.0700 h1        1 MOL      0.036200
     10 H5          0.0030    0.0010    0.0050 h1        1 MOL      0.036200
     11 H6         -0.4190    2.2250   -1.0900 h1        1 MOL      0.044700
     12 H7          1.3390    2.5160   -1.1500 h1        1 MOL      0.044700
     13 H8          0.4290    0.6350   -2.5760 hn        1 MOL      0.350300
     14 H9          0.2000   -0.8620   -1.9740 hn        1 MOL      0.350300
@<TRIPOS>BOND
     1    1    5 1   
     2    2    3 1   
     3    2    4 1   
     4    3    5 1   
     5    1    6 1   
     6    1    7 1   
     7    1    8 1   
     8    2    9 1   
     9    2   10 1   
    10    3   11 1   
    11    3   12 1   
    12    4   13 1   
    13    4   14 1   
@<TRIPOS>SUBSTRUCTURE
     1 R0_         1 TEMP              0 ****  ****    0 ROOT
