@<TRIPOS>MOLECULE
SAMPL4_034
   20    20     1     0     0
SMALL
bcc


@<TRIPOS>ATOM
      1 C1          1.9630   -1.0730   -0.2410 ca        1 MOL     -0.125000
      2 C2          0.8340   -0.4700    0.3140 ca        1 MOL     -0.185000
      3 C3          2.7750   -1.5940    1.9740 ca        1 MOL     -0.178000
      4 C4          2.9330   -1.6350    0.5890 ca        1 MOL     -0.076300
      5 C5          0.6760   -0.4290    1.6990 ca        1 MOL      0.098100
      6 C6          1.6460   -0.9900    2.5290 ca        1 MOL      0.105100
      7 C7          4.1380   -2.2820   -0.0050 c3        1 MOL     -0.050800
      8 C8          2.5390   -1.5520    4.6600 c3        1 MOL      0.110700
      9 O1         -0.4310    0.1630    2.2290 oh        1 MOL     -0.476100
     10 O2          1.5030   -0.9550    3.8830 os        1 MOL     -0.303900
     11 H1          2.0770   -1.1030   -1.3220 ha        1 MOL      0.134000
     12 H2          0.0820   -0.0350   -0.3390 ha        1 MOL      0.135000
     13 H3          3.5290   -2.0310    2.6230 ha        1 MOL      0.139000
     14 H4          4.9440   -1.5480   -0.1290 hc        1 MOL      0.043700
     15 H5          4.5060   -3.0990    0.6300 hc        1 MOL      0.043700
     16 H6          3.9130   -2.7210   -0.9860 hc        1 MOL      0.043700
     17 H7          2.3010   -1.4550    5.7220 h1        1 MOL      0.043367
     18 H8          3.4900   -1.0580    4.4420 h1        1 MOL      0.043367
     19 H9          2.6140   -2.6100    4.4010 h1        1 MOL      0.043367
     20 H10        -1.0020    0.5010    1.5210 ho        1 MOL      0.413000
@<TRIPOS>BOND
     1    1    2 ar  
     2    1    4 ar  
     3    2    5 ar  
     4    3    4 ar  
     5    3    6 ar  
     6    4    7 1   
     7    5    6 ar  
     8    5    9 1   
     9    6   10 1   
    10    8   10 1   
    11    1   11 1   
    12    2   12 1   
    13    3   13 1   
    14    7   14 1   
    15    7   15 1   
    16    7   16 1   
    17    8   17 1   
    18    8   18 1   
    19    8   19 1   
    20    9   20 1   
@<TRIPOS>SUBSTRUCTURE
     1 TMP         1 TEMP              0 ****  ****    0 ROOT
