@<TRIPOS>MOLECULE
CUP08038_AM1BCC_v1_0
   26    26     1     0     0
SMALL
No Charge or Current Charge


@<TRIPOS>ATOM
      1 C1         -3.6220    0.6660   -5.9460 ca        1 MOL     -0.054700
      2 C2         -2.4980   -1.4160   -6.4990 ca        1 MOL     -0.054700
      3 C3         -2.7050    0.8860   -4.9120 ca        1 MOL     -0.142300
      4 C4         -1.5880   -1.1850   -5.4650 ca        1 MOL     -0.142300
      5 C5         -3.5150   -0.4850   -6.7380 ca        1 MOL     -0.177800
      6 C6         -1.6860   -0.0350   -4.6750 ca        1 MOL      0.163400
      7 C7          1.8140    0.3650   -2.0630 c3        1 MOL      0.129800
      8 C8         -1.9100    2.3650   -0.8150 c3        1 MOL      0.129800
      9 N1         -4.4780   -0.7180   -7.8210 no        1 MOL      0.314700
     10 O1         -5.3800    0.1160   -7.9800 o         1 MOL     -0.202500
     11 O2         -4.3330   -1.7370   -8.5120 o         1 MOL     -0.202500
     12 O3         -0.7450    0.0840   -3.6920 os        1 MOL     -0.446600
     13 O4          0.5240    0.7720   -1.6500 os        1 MOL     -0.510000
     14 O5         -1.8580    1.4700   -1.9090 os        1 MOL     -0.510000
     15 P1         -0.4840    1.3810   -2.7640 p5        1 MOL      1.164400
     16 S1          0.1080    3.0070   -3.6420 s         1 MOL     -0.564000
     17 H1         -4.4100    1.3980   -6.1180 ha        1 MOL      0.179700
     18 H2         -2.4000   -2.3170   -7.1020 ha        1 MOL      0.179700
     19 H3         -2.8210    1.7830   -4.3110 ha        1 MOL      0.172600
     20 H4         -0.7960   -1.9080   -5.2750 ha        1 MOL      0.172600
     21 H5          2.2670   -0.2240   -1.2620 h1        1 MOL      0.066700
     22 H6          2.4410    1.2400   -2.2500 h1        1 MOL      0.066700
     23 H7          1.7590   -0.2530   -2.9630 h1        1 MOL      0.066700
     24 H8         -2.8120    2.1510   -0.2350 h1        1 MOL      0.066700
     25 H9         -1.9630    3.3950   -1.1750 h1        1 MOL      0.066700
     26 H10        -1.0400    2.2400   -0.1660 h1        1 MOL      0.066700
@<TRIPOS>BOND
     1    1    3 ar  
     2    1    5 ar  
     3    2    4 ar  
     4    2    5 ar  
     5    3    6 ar  
     6    4    6 ar  
     7    5    9 1   
     8    6   12 1   
     9    7   13 1   
    10    8   14 1   
    11    9   10 1   
    12    9   11 1   
    13   12   15 1   
    14   13   15 1   
    15   14   15 1   
    16   15   16 2   
    17    1   17 1   
    18    2   18 1   
    19    3   19 1   
    20    4   20 1   
    21    7   21 1   
    22    7   22 1   
    23    7   23 1   
    24    8   24 1   
    25    8   25 1   
    26    8   26 1   
@<TRIPOS>SUBSTRUCTURE
     1 R0_         1 TEMP              0 ****  ****    0 ROOT
