@<TRIPOS>MOLECULE
4_methyl_1h_imidazole
   12    12     1     0     0
SMALL
No Charge or Current Charge


@<TRIPOS>ATOM
      1 C1          0.7820   -0.2150    0.7130 cc        1 MOL     -0.261900
      2 C2          1.7160   -0.6690    2.6570 cc        1 MOL      0.385900
      3 C3          2.1470   -0.3430    0.5980 cd        1 MOL      0.304600
      4 C4          2.9750   -0.2150   -0.6110 c3        1 MOL     -0.109700
      5 N1          2.7220   -0.6260    1.8120 nd        1 MOL     -0.664800
      6 N2          0.5220   -0.4260    2.0380 na        1 MOL     -0.321100
      7 H1         -0.0020   -0.0010    0.0020 h4        1 MOL      0.175600
      8 H2          1.7830   -0.8690    3.7170 h5        1 MOL      0.059000
      9 H3          3.8850   -0.8300   -0.5340 hc        1 MOL      0.044700
     10 H4          2.4450   -0.5340   -1.5230 hc        1 MOL      0.044700
     11 H5          3.2930    0.8250   -0.7840 hc        1 MOL      0.044700
     12 H6         -0.3880   -0.4060    2.4800 hn        1 MOL      0.298100
@<TRIPOS>BOND
     1    1    3 ar  
     2    1    6 ar  
     3    2    5 ar  
     4    2    6 ar  
     5    3    4 1   
     6    3    5 ar  
     7    1    7 1   
     8    2    8 1   
     9    4    9 1   
    10    4   10 1   
    11    4   11 1   
    12    6   12 1   
@<TRIPOS>SUBSTRUCTURE
     1 R0_         1 TEMP              0 ****  ****    0 ROOT
