@<TRIPOS>MOLECULE
CUP08013_AM1BCC_v1_0
   27    27     1     0     0
SMALL
No Charge or Current Charge


@<TRIPOS>ATOM
      1 C1         -6.3830   -4.2600   -5.5710 cc        1 MOL     -0.251900
      2 C2         -5.3320   -5.0930   -5.4920 cd        1 MOL      0.136300
      3 C3         -6.3450   -2.9820   -4.7810 c         1 MOL      0.732900
      4 C4         -4.1550   -3.6350   -3.9390 c         1 MOL      0.809100
      5 C5         -5.1880   -6.4070   -6.2110 c3        1 MOL     -0.089400
      6 C6         -6.2980   -2.5680   -1.1470 c3        1 MOL     -0.091500
      7 C7         -5.0450   -0.2790   -4.0480 c3        1 MOL     -0.109400
      8 C8         -6.2580   -1.3960   -2.1190 c3        1 MOL     -0.095500
      9 C9         -5.1350   -1.5310   -3.1690 c3        1 MOL      0.111900
     10 N1         -4.2640   -4.7630   -4.6990 n         1 MOL     -0.469400
     11 N2         -5.2280   -2.7620   -3.9790 n         1 MOL     -0.478000
     12 O1         -7.2790   -2.1840   -4.8650 o         1 MOL     -0.591000
     13 O2         -3.1310   -3.4690   -3.2780 o         1 MOL     -0.638800
     14 Br1        -7.9090   -4.5740   -6.6100 br        1 MOL     -0.013700
     15 H1         -4.3000   -6.3880   -6.8540 hc        1 MOL      0.073800
     16 H2         -6.0400   -6.6620   -6.8450 hc        1 MOL      0.073800
     17 H3         -5.0660   -7.2200   -5.4870 hc        1 MOL      0.073800
     18 H4         -5.3340   -2.6940   -0.6440 hc        1 MOL      0.034700
     19 H5         -7.0590   -2.3930   -0.3800 hc        1 MOL      0.034700
     20 H6         -6.5470   -3.5030   -1.6580 hc        1 MOL      0.034700
     21 H7         -5.9740   -0.0830   -4.5910 hc        1 MOL      0.050200
     22 H8         -4.8290    0.6040   -3.4370 hc        1 MOL      0.050200
     23 H9         -4.2420   -0.3820   -4.7860 hc        1 MOL      0.050200
     24 H10        -7.2390   -1.2910   -2.5920 hc        1 MOL      0.061000
     25 H11        -6.0960   -0.4760   -1.5430 hc        1 MOL      0.061000
     26 H12        -4.1960   -1.5600   -2.6030 h1        1 MOL      0.086800
     27 H13        -3.4620   -5.3820   -4.6390 hn        1 MOL      0.353900
@<TRIPOS>BOND
     1    1    2 2   
     2    1    3 1   
     3    1   14 1   
     4    2    5 1   
     5    2   10 1   
     6    3   11 1   
     7    3   12 2   
     8    4   10 1   
     9    4   11 1   
    10    4   13 2   
    11    6    8 1   
    12    7    9 1   
    13    8    9 1   
    14    9   11 1   
    15    5   15 1   
    16    5   16 1   
    17    5   17 1   
    18    6   18 1   
    19    6   19 1   
    20    6   20 1   
    21    7   21 1   
    22    7   22 1   
    23    7   23 1   
    24    8   24 1   
    25    8   25 1   
    26    9   26 1   
    27   10   27 1   
@<TRIPOS>SUBSTRUCTURE
     1 R0_         1 TEMP              0 ****  ****    0 ROOT
