@<TRIPOS>MOLECULE
SAMPL4_045
   26    28     1     0     0
SMALL
bcc


@<TRIPOS>ATOM
      1 C1          1.2900   -1.6870   -0.3520 ca        1 MOL     -0.116000
      2 C2          0.9560   -0.4630    0.2260 ca        1 MOL     -0.120000
      3 C3          2.5180   -2.2840   -0.0640 ca        1 MOL     -0.089000
      4 C4          1.8480    0.1680    1.0930 ca        1 MOL     -0.087000
      5 C5          6.8850   -2.2140    2.3150 ca        1 MOL     -0.041000
      6 C6          7.7770   -1.5830    3.1820 ca        1 MOL     -0.195000
      7 C7          6.2150    0.2380    3.4720 ca        1 MOL     -0.161000
      8 C8          3.4160   -1.6540    0.8060 ca        1 MOL     -0.123600
      9 C9          3.0810   -0.4280    1.3840 ca        1 MOL     -0.130600
     10 C10         5.6520   -1.6180    2.0240 ca        1 MOL     -0.184600
     11 C11         5.3170   -0.3920    2.6020 ca        1 MOL     -0.081600
     12 C12         7.4420   -0.3590    3.7590 ca        1 MOL      0.176600
     13 C13         4.7130   -2.2940    1.1040 c         1 MOL      0.592300
     14 C14         4.0190    0.2480    2.3040 c         1 MOL      0.584300
     15 N1          8.3470    0.2760    4.6360 nh        1 MOL     -0.833200
     16 O1          5.0070   -3.3690    0.5970 o         1 MOL     -0.537100
     17 O2          3.7250    1.3230    2.8100 o         1 MOL     -0.527100
     18 H1          0.5940   -2.1770   -1.0250 ha        1 MOL      0.141000
     19 H2         -0.0010   -0.0010    0.0010 ha        1 MOL      0.141000
     20 H3          2.7550   -3.2380   -0.5270 ha        1 MOL      0.160000
     21 H4          1.5650    1.1220    1.5300 ha        1 MOL      0.159000
     22 H5          7.1690   -3.1680    1.8780 ha        1 MOL      0.159000
     23 H6          8.7310   -2.0550    3.4020 ha        1 MOL      0.140000
     24 H7          5.9680    1.1940    3.9300 ha        1 MOL      0.159000
     25 H8          9.2030   -0.1840    4.8720 hn        1 MOL      0.407800
     26 H9          8.0760    1.1300    5.0810 hn        1 MOL      0.407800
@<TRIPOS>BOND
     1    1    2 ar  
     2    1    3 ar  
     3    2    4 ar  
     4    3    8 ar  
     5    4    9 ar  
     6    5    6 ar  
     7    5   10 ar  
     8    6   12 ar  
     9    7   11 ar  
    10    7   12 ar  
    11    8    9 ar  
    12    8   13 1   
    13    9   14 1   
    14   10   11 ar  
    15   10   13 1   
    16   11   14 1   
    17   12   15 1   
    18   13   16 2   
    19   14   17 2   
    20    1   18 1   
    21    2   19 1   
    22    3   20 1   
    23    4   21 1   
    24    5   22 1   
    25    6   23 1   
    26    7   24 1   
    27   15   25 1   
    28   15   26 1   
@<TRIPOS>SUBSTRUCTURE
     1 TMP         1 TEMP              0 ****  ****    0 ROOT
