@<TRIPOS>MOLECULE
hydrogen_sulfide
    3     2     1     0     0
SMALL
No Charge or Current Charge


@<TRIPOS>ATOM
      1 S1         -0.8870    0.2330    0.9790 sh        1 MOL     -0.439100
      2 H1         -0.4010    1.4560    1.2360 hs        1 MOL      0.219500
      3 H2          0.0000   -0.0000    0.0000 hs        1 MOL      0.219500
@<TRIPOS>BOND
     1    1    2 1   
     2    1    3 1   
@<TRIPOS>SUBSTRUCTURE
     1 R0_         1 TEMP              0 ****  ****    0 ROOT
