@<TRIPOS>MOLECULE
13_dimethylnaphthalene
   24    25     1     0     0
SMALL
No Charge or Current Charge


@<TRIPOS>ATOM
      1 C1          0.3470   -1.0290    0.0270 ca        1 MOL     -0.127700
      2 C2         -0.5380   -2.0540    0.3450 ca        1 MOL     -0.130500
      3 C3          1.6820   -1.3210   -0.2570 ca        1 MOL     -0.119300
      4 C4         -0.0920   -3.3760    0.3810 ca        1 MOL     -0.117400
      5 C5          3.4870   -2.9580   -0.5090 ca        1 MOL     -0.124700
      6 C6          3.0470   -5.3050   -0.1550 ca        1 MOL     -0.129500
      7 C7          2.1480   -2.6450   -0.2260 ca        1 MOL     -0.030200
      8 C8          1.2470   -3.6880    0.0980 ca        1 MOL     -0.035900
      9 C9          3.9330   -4.2790   -0.4730 ca        1 MOL     -0.061500
     10 C10         1.7130   -5.0130    0.1290 ca        1 MOL     -0.051800
     11 C11         5.3590   -4.5930   -0.7770 c3        1 MOL     -0.060600
     12 C12         0.8140   -6.1630    0.4640 c3        1 MOL     -0.062200
     13 H1         -0.0000   -0.0000   -0.0010 ha        1 MOL      0.131100
     14 H2         -1.5770   -1.8260    0.5660 ha        1 MOL      0.130700
     15 H3          2.3560   -0.5030   -0.5030 ha        1 MOL      0.131400
     16 H4         -0.8140   -4.1490    0.6330 ha        1 MOL      0.132000
     17 H5          4.1900   -2.1650   -0.7600 ha        1 MOL      0.131900
     18 H6          3.3980   -6.3340   -0.1290 ha        1 MOL      0.131200
     19 H7          5.9850   -4.4200    0.1070 hc        1 MOL      0.043400
     20 H8          5.4790   -5.6380   -1.0900 hc        1 MOL      0.043400
     21 H9          5.7370   -3.9710   -1.5990 hc        1 MOL      0.043400
     22 H10         1.1580   -6.6540    1.3790 hc        1 MOL      0.044200
     23 H11        -0.2170   -5.8240    0.6110 hc        1 MOL      0.044200
     24 H12         0.7990   -6.8980   -0.3480 hc        1 MOL      0.044200
@<TRIPOS>BOND
     1    1    2 ar  
     2    1    3 ar  
     3    2    4 ar  
     4    3    7 ar  
     5    4    8 ar  
     6    5    7 ar  
     7    5    9 ar  
     8    6    9 ar  
     9    6   10 ar  
    10    7    8 ar  
    11    8   10 ar  
    12    9   11 1   
    13   10   12 1   
    14    1   13 1   
    15    2   14 1   
    16    3   15 1   
    17    4   16 1   
    18    5   17 1   
    19    6   18 1   
    20   11   19 1   
    21   11   20 1   
    22   11   21 1   
    23   12   22 1   
    24   12   23 1   
    25   12   24 1   
@<TRIPOS>SUBSTRUCTURE
     1 R0_         1 TEMP              0 ****  ****    0 ROOT
