@<TRIPOS>MOLECULE
26_dimethylnaphthalene
   24    25     1     0     0
SMALL
No Charge or Current Charge


@<TRIPOS>ATOM
      1 C1          1.6790   -1.3220   -0.2670 ca        1 MOL     -0.116200
      2 C2          1.7130   -5.0130    0.1350 ca        1 MOL     -0.116200
      3 C3          0.3480   -1.0290    0.0290 ca        1 MOL     -0.126200
      4 C4          3.0450   -5.3070   -0.1610 ca        1 MOL     -0.126200
      5 C5          3.4820   -2.9610   -0.5290 ca        1 MOL     -0.118600
      6 C6         -0.0890   -3.3740    0.3970 ca        1 MOL     -0.118600
      7 C7          2.1450   -2.6470   -0.2340 ca        1 MOL     -0.035800
      8 C8          1.2480   -3.6880    0.1020 ca        1 MOL     -0.035800
      9 C9         -0.5350   -2.0520    0.3600 ca        1 MOL     -0.067300
     10 C10         3.9270   -4.2830   -0.4930 ca        1 MOL     -0.067300
     11 C11        -1.9580   -1.7370    0.6750 c3        1 MOL     -0.060400
     12 C12         5.3510   -4.5980   -0.8080 c3        1 MOL     -0.060400
     13 H1          2.3520   -0.5060   -0.5230 ha        1 MOL      0.131600
     14 H2          1.0410   -5.8290    0.3910 ha        1 MOL      0.131600
     15 H3          0.0090    0.0040   -0.0030 ha        1 MOL      0.131200
     16 H4          3.3830   -6.3390   -0.1310 ha        1 MOL      0.131200
     17 H5          4.1830   -2.1700   -0.7900 ha        1 MOL      0.131700
     18 H6         -0.7900   -4.1660    0.6570 ha        1 MOL      0.131700
     19 H7         -2.2360   -2.1590    1.6490 hc        1 MOL      0.043300
     20 H8         -2.1280   -0.6530    0.7050 hc        1 MOL      0.043300
     21 H9         -2.6350   -2.1440   -0.0870 hc        1 MOL      0.043300
     22 H10         5.9820   -4.4370    0.0740 hc        1 MOL      0.043300
     23 H11         5.4650   -5.6410   -1.1320 hc        1 MOL      0.043300
     24 H12         5.7260   -3.9690   -1.6250 hc        1 MOL      0.043300
@<TRIPOS>BOND
     1    1    3 ar  
     2    1    7 ar  
     3    2    4 ar  
     4    2    8 ar  
     5    3    9 ar  
     6    4   10 ar  
     7    5    7 ar  
     8    5   10 ar  
     9    6    8 ar  
    10    6    9 ar  
    11    7    8 ar  
    12    9   11 1   
    13   10   12 1   
    14    1   13 1   
    15    2   14 1   
    16    3   15 1   
    17    4   16 1   
    18    5   17 1   
    19    6   18 1   
    20   11   19 1   
    21   11   20 1   
    22   11   21 1   
    23   12   22 1   
    24   12   23 1   
    25   12   24 1   
@<TRIPOS>SUBSTRUCTURE
     1 R0_         1 TEMP              0 ****  ****    0 ROOT
