@<TRIPOS>MOLECULE
4_methoxyaniline
   18    18     1     0     0
SMALL
No Charge or Current Charge


@<TRIPOS>ATOM
      1 C1          0.8180   -0.4390    0.5640 ca        1 MOL     -0.156700
      2 C2          2.9370   -1.5970    0.6200 ca        1 MOL     -0.156700
      3 C3          0.7990   -0.4060    1.9590 ca        1 MOL     -0.142500
      4 C4          2.9180   -1.5650    2.0140 ca        1 MOL     -0.142500
      5 C5          1.8870   -1.0340   -0.1050 ca        1 MOL      0.102400
      6 C6          1.8500   -0.9690    2.6840 ca        1 MOL      0.083300
      7 C7          0.7090   -0.3130    4.6640 c3        1 MOL      0.118600
      8 N1          1.9050   -1.0660   -1.5150 nh        1 MOL     -0.814200
      9 O1          1.8320   -0.9370    4.0440 os        1 MOL     -0.330000
     10 H1         -0.0060    0.0030    0.0100 ha        1 MOL      0.133200
     11 H2          3.7750   -2.0630    0.1080 ha        1 MOL      0.133200
     12 H3         -0.0360    0.0600    2.4750 ha        1 MOL      0.141700
     13 H4          3.7400   -2.0040    2.5740 ha        1 MOL      0.141700
     14 H5         -0.1100   -1.0320    4.7470 h1        1 MOL      0.040800
     15 H6          0.3930    0.5470    4.0680 h1        1 MOL      0.040800
     16 H7          0.9960    0.0250    5.6630 h1        1 MOL      0.040800
     17 H8          1.1740   -0.6120   -2.0230 hn        1 MOL      0.383000
     18 H9          2.5940   -1.6210   -1.9810 hn        1 MOL      0.383000
@<TRIPOS>BOND
     1    1    3 ar  
     2    1    5 ar  
     3    2    4 ar  
     4    2    5 ar  
     5    3    6 ar  
     6    4    6 ar  
     7    5    8 1   
     8    6    9 1   
     9    7    9 1   
    10    1   10 1   
    11    2   11 1   
    12    3   12 1   
    13    4   13 1   
    14    7   14 1   
    15    7   15 1   
    16    7   16 1   
    17    8   17 1   
    18    8   18 1   
@<TRIPOS>SUBSTRUCTURE
     1 R0_         1 TEMP              0 ****  ****    0 ROOT
