@<TRIPOS>MOLECULE
p_cresol
   16    16     1     0     0
SMALL
No Charge or Current Charge


@<TRIPOS>ATOM
      1 C1          0.8180   -0.4390    0.5640 ca        1 MOL     -0.094900
      2 C2          2.9370   -1.5970    0.6200 ca        1 MOL     -0.094900
      3 C3          0.7990   -0.4060    1.9590 ca        1 MOL     -0.181300
      4 C4          2.9180   -1.5650    2.0140 ca        1 MOL     -0.181300
      5 C5          1.8870   -1.0340   -0.1050 ca        1 MOL     -0.102700
      6 C6          1.8500   -0.9690    2.6840 ca        1 MOL      0.119000
      7 C7          1.9070   -1.0680   -1.5960 c3        1 MOL     -0.055000
      8 O1          1.8300   -0.9380    4.0440 oh        1 MOL     -0.500000
      9 H1         -0.0040    0.0040    0.0080 ha        1 MOL      0.133100
     10 H2          3.7740   -2.0630    0.1060 ha        1 MOL      0.133100
     11 H3         -0.0350    0.0600    2.4750 ha        1 MOL      0.140900
     12 H4          3.7400   -2.0040    2.5730 ha        1 MOL      0.140900
     13 H5          2.1030   -2.0870   -1.9520 hc        1 MOL      0.041500
     14 H6          0.9510   -0.7310   -2.0150 hc        1 MOL      0.041500
     15 H7          2.6830   -0.4040   -1.9990 hc        1 MOL      0.041500
     16 H8          1.1750   -0.2780    4.3350 ho        1 MOL      0.418500
@<TRIPOS>BOND
     1    1    3 ar  
     2    1    5 ar  
     3    2    4 ar  
     4    2    5 ar  
     5    3    6 ar  
     6    4    6 ar  
     7    5    7 1   
     8    6    8 1   
     9    1    9 1   
    10    2   10 1   
    11    3   11 1   
    12    4   12 1   
    13    7   13 1   
    14    7   14 1   
    15    7   15 1   
    16    8   16 1   
@<TRIPOS>SUBSTRUCTURE
     1 R0_         1 TEMP              0 ****  ****    0 ROOT
