@<TRIPOS>MOLECULE
methyl_butanoate
   17    16     1     0     0
SMALL
No Charge or Current Charge


@<TRIPOS>ATOM
      1 C1          2.6750   -0.7720    3.1240 c         1 MOL      0.629100
      2 C2         -0.3730   -0.6660    0.7470 c3        1 MOL     -0.093900
      3 C3          4.8600   -1.0200    3.9970 c3        1 MOL      0.128100
      4 C4          1.8850   -0.8880    1.8410 c3        1 MOL     -0.125400
      5 C5          0.4050   -0.5790    2.0500 c3        1 MOL     -0.074400
      6 O1          2.2130   -0.4520    4.2110 o         1 MOL     -0.538200
      7 O2          3.9810   -1.0840    2.8700 os        1 MOL     -0.443200
      8 H1         -1.4300   -0.4400    0.9200 hc        1 MOL      0.037500
      9 H2          0.0120    0.0480    0.0120 hc        1 MOL      0.037500
     10 H3         -0.3060   -1.6710    0.3180 hc        1 MOL      0.037500
     11 H4          5.6390   -0.2760    3.8110 h1        1 MOL      0.049300
     12 H5          5.3120   -2.0010    4.1640 h1        1 MOL      0.049300
     13 H6          4.2860   -0.7300    4.8800 h1        1 MOL      0.049300
     14 H7          2.3100   -0.1870    1.1130 hc        1 MOL      0.076100
     15 H8          1.9990   -1.9090    1.4600 hc        1 MOL      0.076100
     16 H9         -0.0250   -1.2800    2.7760 hc        1 MOL      0.052600
     17 H10         0.2890    0.4260    2.4740 hc        1 MOL      0.052600
@<TRIPOS>BOND
     1    1    4 1   
     2    1    6 2   
     3    1    7 1   
     4    2    5 1   
     5    3    7 1   
     6    4    5 1   
     7    2    8 1   
     8    2    9 1   
     9    2   10 1   
    10    3   11 1   
    11    3   12 1   
    12    3   13 1   
    13    4   14 1   
    14    4   15 1   
    15    5   16 1   
    16    5   17 1   
@<TRIPOS>SUBSTRUCTURE
     1 R0_         1 TEMP              0 ****  ****    0 ROOT
