@<TRIPOS>MOLECULE
12_diacetoxyethane
   20    19     1     0     0
SMALL
No Charge or Current Charge


@<TRIPOS>ATOM
      1 C1         -0.7130    1.3210   -1.5480 c         1 MOL      0.630100
      2 C2         -4.7450   -2.1210   -2.4720 c         1 MOL      0.630100
      3 C3         -0.1310    1.1110   -0.1830 c3        1 MOL     -0.145900
      4 C4         -4.3200   -3.5310   -2.1960 c3        1 MOL     -0.145900
      5 C5         -2.5900    0.8100   -2.8900 c3        1 MOL      0.129300
      6 C6         -3.9060    0.0610   -2.8220 c3        1 MOL      0.129300
      7 O1         -0.1670    1.9650   -2.4340 o         1 MOL     -0.541300
      8 O2         -5.9100   -1.7680   -2.5950 o         1 MOL     -0.541300
      9 O3         -1.9190    0.6900   -1.6320 os        1 MOL     -0.438900
     10 O4         -3.6450   -1.3130   -2.5610 os        1 MOL     -0.438900
     11 H1          0.0290    0.0440   -0.0080 hc        1 MOL      0.075700
     12 H2         -0.7990    1.5300    0.5730 hc        1 MOL      0.075700
     13 H3          0.8340    1.6230   -0.1180 hc        1 MOL      0.075700
     14 H4         -3.7870   -3.5780   -1.2430 hc        1 MOL      0.075700
     15 H5         -3.6870   -3.8930   -3.0100 hc        1 MOL      0.075700
     16 H6         -5.2050   -4.1710   -2.1330 hc        1 MOL      0.075700
     17 H7         -2.7510    1.8740   -3.0900 h1        1 MOL      0.069700
     18 H8         -1.9460    0.3830   -3.6640 h1        1 MOL      0.069700
     19 H9         -4.4490    0.1300   -3.7700 h1        1 MOL      0.069700
     20 H10        -4.5280    0.4510   -2.0110 h1        1 MOL      0.069700
@<TRIPOS>BOND
     1    1    3 1   
     2    1    7 2   
     3    1    9 1   
     4    2    4 1   
     5    2    8 2   
     6    2   10 1   
     7    5    6 1   
     8    5    9 1   
     9    6   10 1   
    10    3   11 1   
    11    3   12 1   
    12    3   13 1   
    13    4   14 1   
    14    4   15 1   
    15    4   16 1   
    16    5   17 1   
    17    5   18 1   
    18    6   19 1   
    19    6   20 1   
@<TRIPOS>SUBSTRUCTURE
     1 R0_         1 TEMP              0 ****  ****    0 ROOT
