@<TRIPOS>MOLECULE
CUP08052_AM1BCC_v1_0
   27    27     1     0     0
SMALL
No Charge or Current Charge


@<TRIPOS>ATOM
      1 C1         -1.6610   -2.3970   -1.3850 cc        1 MOL     -0.191100
      2 C2         -1.4910   -1.2340   -0.7440 cd        1 MOL      0.108600
      3 C3         -2.9300   -2.6040   -2.1500 c         1 MOL      0.728000
      4 C4         -3.5680   -0.3600   -1.6610 c         1 MOL      0.814200
      5 C5         -0.3250   -0.8660    0.1280 c3        1 MOL     -0.080000
      6 C6         -4.4560   -2.5310   -4.6570 c3        1 MOL     -0.103900
      7 C7         -6.0400   -2.0610   -2.7580 c3        1 MOL     -0.103900
      8 C8         -5.0930   -0.2110   -4.1740 c3        1 MOL     -0.103900
      9 C9         -4.7750   -1.5650   -3.4830 c3        1 MOL      0.136600
     10 N1         -2.4680   -0.2810   -0.8490 n         1 MOL     -0.474200
     11 N2         -3.6250   -1.4510   -2.5190 n         1 MOL     -0.475400
     12 O1         -3.3020   -3.7500   -2.3960 o         1 MOL     -0.594000
     13 O2         -4.4120    0.5250   -1.5560 o         1 MOL     -0.640400
     14 Cl1        -0.5480   -3.7080   -1.3170 cl        1 MOL     -0.042700
     15 H1          0.1550    0.0430   -0.2490 hc        1 MOL      0.070500
     16 H2          0.4430   -1.6420    0.1790 hc        1 MOL      0.070500
     17 H3         -0.6660   -0.6740    1.1520 hc        1 MOL      0.070500
     18 H4         -3.4790   -2.3010   -5.0980 hc        1 MOL      0.050900
     19 H5         -4.4560   -3.5830   -4.3580 hc        1 MOL      0.050900
     20 H6         -5.2080   -2.4570   -5.4520 hc        1 MOL      0.050900
     21 H7         -6.3350   -1.3760   -1.9560 hc        1 MOL      0.050900
     22 H8         -5.8820   -3.0450   -2.3030 hc        1 MOL      0.050900
     23 H9         -6.8850   -2.1470   -3.4510 hc        1 MOL      0.050900
     24 H10        -5.5880    0.5020   -3.5100 hc        1 MOL      0.050900
     25 H11        -4.1790    0.2570   -4.5590 hc        1 MOL      0.050900
     26 H12        -5.7810   -0.3450   -5.0180 hc        1 MOL      0.050900
     27 H13        -2.4200    0.5670   -0.2930 hn        1 MOL      0.353200
@<TRIPOS>BOND
     1    1    2 2   
     2    1    3 1   
     3    1   14 1   
     4    2    5 1   
     5    2   10 1   
     6    3   11 1   
     7    3   12 2   
     8    4   10 1   
     9    4   11 1   
    10    4   13 2   
    11    6    9 1   
    12    7    9 1   
    13    8    9 1   
    14    9   11 1   
    15    5   15 1   
    16    5   16 1   
    17    5   17 1   
    18    6   18 1   
    19    6   19 1   
    20    6   20 1   
    21    7   21 1   
    22    7   22 1   
    23    7   23 1   
    24    8   24 1   
    25    8   25 1   
    26    8   26 1   
    27   10   27 1   
@<TRIPOS>SUBSTRUCTURE
     1 R0_         1 TEMP              0 ****  ****    0 ROOT
