@<TRIPOS>MOLECULE
cf32ben.xyz
   18    18     1     0     0
SMALL
No Charge or Current Charge


@<TRIPOS>ATOM
      1 C1          1.4010    2.3970   -0.0000 ca        1 MOL     -0.136600
      2 C2          2.0920    1.1900    0.0000 ca        1 MOL     -0.049100
      3 C3          0.0220    2.4050   -0.0000 ca        1 MOL     -0.052500
      4 C4          0.0000    0.0000    0.0000 ca        1 MOL     -0.030400
      5 C5          1.3920    0.0000    0.0000 ca        1 MOL     -0.210400
      6 C6         -0.6780    1.2010    0.0000 ca        1 MOL     -0.209000
      7 C7          2.1070   -1.3250   -0.0000 c3        1 MOL      0.733800
      8 C8         -2.1830    1.2400   -0.0000 c3        1 MOL      0.734000
      9 F1          1.7880   -2.0520    1.0620 f         1 MOL     -0.232000
     10 F2          3.4220   -1.1840    0.0020 f         1 MOL     -0.233000
     11 F3          1.7910   -2.0500   -1.0640 f         1 MOL     -0.232000
     12 F4         -2.7170    0.0310    0.0000 f         1 MOL     -0.230900
     13 F5         -2.6530    1.8790    1.0630 f         1 MOL     -0.233000
     14 F6         -2.6530    1.8780   -1.0630 f         1 MOL     -0.233000
     15 H1          1.9450    3.3240    0.0000 ha        1 MOL      0.147600
     16 H2          3.1660    1.1850    0.0000 ha        1 MOL      0.154000
     17 H3         -0.5130    3.3370    0.0000 ha        1 MOL      0.150500
     18 H4         -0.5400   -0.9280    0.0000 ha        1 MOL      0.162100
@<TRIPOS>BOND
     1    1    2 ar  
     2    1    3 ar  
     3    2    5 ar  
     4    3    6 ar  
     5    4    5 ar  
     6    4    6 ar  
     7    5    7 1   
     8    6    8 1   
     9    7    9 1   
    10    7   10 1   
    11    7   11 1   
    12    8   12 1   
    13    8   13 1   
    14    8   14 1   
    15    1   15 1   
    16    2   16 1   
    17    3   17 1   
    18    4   18 1   
@<TRIPOS>SUBSTRUCTURE
     1 MOL         1 TEMP              0 ****  ****    0 ROOT
