@<TRIPOS>MOLECULE
26_dimethylpyridine
   17    17     1     0     0
SMALL
No Charge or Current Charge


@<TRIPOS>ATOM
      1 C1          1.2860   -0.0600    1.7330 ca        1 MOL     -0.086600
      2 C2          0.1840   -0.4390    0.9740 ca        1 MOL     -0.257500
      3 C3          1.4970   -0.6400    2.9790 ca        1 MOL     -0.257500
      4 C4         -0.6700   -1.3940    1.5010 ca        1 MOL      0.418000
      5 C5          0.5840   -1.5860    3.4170 ca        1 MOL      0.418000
      6 C6         -1.8620   -1.8240    0.7140 c3        1 MOL     -0.147000
      7 C7          0.7790   -2.2290    4.7500 c3        1 MOL     -0.147000
      8 N1         -0.4980   -1.9790    2.7080 nb        1 MOL     -0.670300
      9 H1          1.9790    0.6850    1.3550 ha        1 MOL      0.135600
     10 H2          0.0090    0.0060    0.0000 ha        1 MOL      0.140700
     11 H3          2.3520   -0.3530    3.5820 ha        1 MOL      0.140700
     12 H4         -2.2340   -2.7880    1.0810 hc        1 MOL      0.052200
     13 H5         -2.6720   -1.0880    0.7840 hc        1 MOL      0.052200
     14 H6         -1.6180   -1.9280   -0.3510 hc        1 MOL      0.052200
     15 H7          1.5650   -1.7110    5.3110 hc        1 MOL      0.052200
     16 H8         -0.1450   -2.2060    5.3410 hc        1 MOL      0.052200
     17 H9          1.0630   -3.2840    4.6440 hc        1 MOL      0.052200
@<TRIPOS>BOND
     1    1    2 ar  
     2    1    3 ar  
     3    2    4 ar  
     4    3    5 ar  
     5    4    6 1   
     6    4    8 ar  
     7    5    7 1   
     8    5    8 ar  
     9    1    9 1   
    10    2   10 1   
    11    3   11 1   
    12    6   12 1   
    13    6   13 1   
    14    6   14 1   
    15    7   15 1   
    16    7   16 1   
    17    7   17 1   
@<TRIPOS>SUBSTRUCTURE
     1 R0_         1 TEMP              0 ****  ****    0 ROOT
