@<TRIPOS>MOLECULE
2_methylbutane
   17    16     1     0     0
SMALL
No Charge or Current Charge


@<TRIPOS>ATOM
      1 C1          0.0260   -1.8270   -2.8720 c3        1 MOL     -0.089200
      2 C2          2.6690   -1.6480   -1.3710 c3        1 MOL     -0.086700
      3 C3          2.5200   -0.0900   -3.3240 c3        1 MOL     -0.086700
      4 C4          0.4310   -0.6230   -2.0340 c3        1 MOL     -0.073600
      5 C5          1.9540   -0.4230   -1.9410 c3        1 MOL     -0.066700
      6 H1         -1.0570   -1.9780   -2.8120 hc        1 MOL      0.031500
      7 H2          0.5140   -2.7390   -2.5140 hc        1 MOL      0.031500
      8 H3          0.2810   -1.6880   -3.9260 hc        1 MOL      0.031500
      9 H4          2.4500   -2.5450   -1.9600 hc        1 MOL      0.031900
     10 H5          2.3700   -1.8380   -0.3350 hc        1 MOL      0.031900
     11 H6          3.7540   -1.5000   -1.3720 hc        1 MOL      0.031900
     12 H7          2.3520   -0.9100   -4.0300 hc        1 MOL      0.031900
     13 H8          3.5980    0.0940   -3.2690 hc        1 MOL      0.031900
     14 H9          2.0490    0.8100   -3.7310 hc        1 MOL      0.031900
     15 H10        -0.0430    0.2760   -2.4470 hc        1 MOL      0.036800
     16 H11         0.0250   -0.7580   -1.0240 hc        1 MOL      0.036800
     17 H12         2.1570    0.4300   -1.2810 hc        1 MOL      0.043000
@<TRIPOS>BOND
     1    1    4 1   
     2    2    5 1   
     3    3    5 1   
     4    4    5 1   
     5    1    6 1   
     6    1    7 1   
     7    1    8 1   
     8    2    9 1   
     9    2   10 1   
    10    2   11 1   
    11    3   12 1   
    12    3   13 1   
    13    3   14 1   
    14    4   15 1   
    15    4   16 1   
    16    5   17 1   
@<TRIPOS>SUBSTRUCTURE
     1 R0_         1 TEMP              0 ****  ****    0 ROOT
