@<TRIPOS>MOLECULE
2_phenylethanol
   19    19     1     0     0
SMALL
No Charge or Current Charge


@<TRIPOS>ATOM
      1 C1          1.8850   -1.0380   -0.1090 ca        1 MOL     -0.130900
      2 C2          0.8180   -0.4410    0.5630 ca        1 MOL     -0.129600
      3 C3          2.9350   -1.6040    0.6140 ca        1 MOL     -0.129600
      4 C4          0.8010   -0.4100    1.9570 ca        1 MOL     -0.123600
      5 C5          2.9180   -1.5730    2.0080 ca        1 MOL     -0.123600
      6 C6          1.8510   -0.9770    2.6800 ca        1 MOL     -0.069300
      7 C7          1.8330   -0.9440    4.1710 c3        1 MOL     -0.056500
      8 C8          2.5050    0.3050    4.7490 c3        1 MOL      0.136700
      9 O1          2.4160    0.2790    6.1680 oh        1 MOL     -0.601500
     10 H1          1.8980   -1.0610   -1.1950 ha        1 MOL      0.130300
     11 H2          0.0000    0.0000   -0.0000 ha        1 MOL      0.130400
     12 H3          3.7650   -2.0680    0.0910 ha        1 MOL      0.130400
     13 H4         -0.0350    0.0570    2.4720 ha        1 MOL      0.132200
     14 H5          3.7400   -2.0170    2.5630 ha        1 MOL      0.132200
     15 H6          2.3260   -1.8430    4.5770 hc        1 MOL      0.057100
     16 H7          0.7910   -0.9850    4.5290 hc        1 MOL      0.057100
     17 H8          1.9940    1.2080    4.3990 h1        1 MOL      0.029300
     18 H9          3.5590    0.3640    4.4620 h1        1 MOL      0.029300
     19 H10         2.4670   -0.6530    6.4340 ho        1 MOL      0.399500
@<TRIPOS>BOND
     1    1    2 ar  
     2    1    3 ar  
     3    2    4 ar  
     4    3    5 ar  
     5    4    6 ar  
     6    5    6 ar  
     7    6    7 1   
     8    7    8 1   
     9    8    9 1   
    10    1   10 1   
    11    2   11 1   
    12    3   12 1   
    13    4   13 1   
    14    5   14 1   
    15    7   15 1   
    16    7   16 1   
    17    8   17 1   
    18    8   18 1   
    19    9   19 1   
@<TRIPOS>SUBSTRUCTURE
     1 R0_         1 TEMP              0 ****  ****    0 ROOT
