@<TRIPOS>MOLECULE
butan_2_ol
   15    14     1     0     0
SMALL
No Charge or Current Charge


@<TRIPOS>ATOM
      1 C1          0.9780   -0.0330   -0.2360 c3        1 MOL     -0.089200
      2 C2          1.0610    0.9420   -3.9930 c3        1 MOL     -0.114700
      3 C3          1.4100    0.6790   -1.5110 c3        1 MOL     -0.086700
      4 C4          0.6390    0.1880   -2.7390 c3        1 MOL      0.141600
      5 O1         -0.7550    0.3900   -2.5270 oh        1 MOL     -0.602900
      6 H1          1.1280   -1.1130   -0.3220 hc        1 MOL      0.035700
      7 H2         -0.0770    0.1520   -0.0130 hc        1 MOL      0.035700
      8 H3          1.5690    0.3250    0.6140 hc        1 MOL      0.035700
      9 H4          0.8500    2.0130   -3.8950 hc        1 MOL      0.042100
     10 H5          2.1280    0.8110   -4.1970 hc        1 MOL      0.042100
     11 H6          0.4950    0.5880   -4.8610 hc        1 MOL      0.042100
     12 H7          2.4850    0.5240   -1.6590 hc        1 MOL      0.046500
     13 H8          1.2460    1.7550   -1.3740 hc        1 MOL      0.046500
     14 H9          0.8080   -0.8860   -2.8800 h1        1 MOL      0.026800
     15 H10        -1.1020    0.7930   -3.3380 ho        1 MOL      0.398600
@<TRIPOS>BOND
     1    1    3 1   
     2    2    4 1   
     3    3    4 1   
     4    4    5 1   
     5    1    6 1   
     6    1    7 1   
     7    1    8 1   
     8    2    9 1   
     9    2   10 1   
    10    2   11 1   
    11    3   12 1   
    12    3   13 1   
    13    4   14 1   
    14    5   15 1   
@<TRIPOS>SUBSTRUCTURE
     1 R0_         1 TEMP              0 ****  ****    0 ROOT
