@<TRIPOS>MOLECULE
4_methylacetophenone
   20    20     1     0     0
SMALL
No Charge or Current Charge


@<TRIPOS>ATOM
      1 C1          0.8180   -0.4390    0.5640 ca        1 MOL     -0.077700
      2 C2          2.9370   -1.5970    0.6200 ca        1 MOL     -0.077700
      3 C3          0.7990   -0.4060    1.9590 ca        1 MOL     -0.147900
      4 C4          2.9180   -1.5650    2.0140 ca        1 MOL     -0.147900
      5 C5          1.8870   -1.0340   -0.1050 ca        1 MOL     -0.182700
      6 C6          1.8500   -0.9690    2.6840 ca        1 MOL     -0.036000
      7 C7          1.9050   -1.0700   -1.5590 c         1 MOL      0.573300
      8 C8          1.8300   -0.9330    4.1750 c3        1 MOL     -0.067300
      9 C9          0.7600   -0.4580   -2.3580 c3        1 MOL     -0.193600
     10 O1          2.8480   -1.5950   -2.1850 o         1 MOL     -0.536700
     11 H1         -0.0060    0.0030    0.0090 ha        1 MOL      0.144600
     12 H2          3.7750   -2.0650    0.1080 ha        1 MOL      0.144600
     13 H3         -0.0370    0.0600    2.4720 ha        1 MOL      0.136300
     14 H4          3.7410   -2.0050    2.5710 ha        1 MOL      0.136300
     15 H5          2.7330   -0.4420    4.5570 hc        1 MOL      0.047800
     16 H6          0.9530   -0.3880    4.5480 hc        1 MOL      0.047800
     17 H7          1.7790   -1.9450    4.5970 hc        1 MOL      0.047800
     18 H8          0.6980    0.6140   -2.1530 hc        1 MOL      0.063100
     19 H9         -0.1770   -0.9610   -2.1050 hc        1 MOL      0.063100
     20 H10         0.9330   -0.5880   -3.4310 hc        1 MOL      0.063100
@<TRIPOS>BOND
     1    1    3 ar  
     2    1    5 ar  
     3    2    4 ar  
     4    2    5 ar  
     5    3    6 ar  
     6    4    6 ar  
     7    5    7 1   
     8    6    8 1   
     9    7    9 1   
    10    7   10 2   
    11    1   11 1   
    12    2   12 1   
    13    3   13 1   
    14    4   14 1   
    15    8   15 1   
    16    8   16 1   
    17    8   17 1   
    18    9   18 1   
    19    9   19 1   
    20    9   20 1   
@<TRIPOS>SUBSTRUCTURE
     1 R0_         1 TEMP              0 ****  ****    0 ROOT
