@<TRIPOS>MOLECULE
dibromomethane
    5     4     1     0     0
SMALL
No Charge or Current Charge


@<TRIPOS>ATOM
      1 C1         -0.4350    0.9370   -0.3520 c3        1 MOL      0.012200
      2 Br1        -1.1030    0.6570   -2.1440 br        1 MOL     -0.109100
      3 Br2        -1.8040    1.4760    0.9020 br        1 MOL     -0.109100
      4 H1          0.3220    1.7230   -0.3890 h2        1 MOL      0.103000
      5 H2          0.0000    0.0000    0.0000 h2        1 MOL      0.103000
@<TRIPOS>BOND
     1    1    2 1   
     2    1    3 1   
     3    1    4 1   
     4    1    5 1   
@<TRIPOS>SUBSTRUCTURE
     1 R0_         1 TEMP              0 ****  ****    0 ROOT
