@<TRIPOS>MOLECULE
n_propyl_propanoate
   20    19     1     0     0
SMALL
No Charge or Current Charge


@<TRIPOS>ATOM
      1 C1         -1.6140    0.0810    4.3720 c         1 MOL      0.630100
      2 C2          0.0280   -1.8040    4.1100 c3        1 MOL     -0.089500
      3 C3         -4.5260    3.9930    4.4230 c3        1 MOL     -0.089100
      4 C4         -0.4900   -0.4940    3.5420 c3        1 MOL     -0.124800
      5 C5         -3.4080    3.2180    3.7490 c3        1 MOL     -0.094900
      6 C6         -3.0830    1.9310    4.4930 c3        1 MOL      0.140600
      7 O1         -2.0820   -0.4340    5.3780 o         1 MOL     -0.540500
      8 O2         -2.0160    1.2610    3.8140 os        1 MOL     -0.447400
      9 H1         -0.7660   -2.5570    4.1510 hc        1 MOL      0.046500
     10 H2          0.8390   -2.1950    3.4880 hc        1 MOL      0.046500
     11 H3          0.4120   -1.6670    5.1270 hc        1 MOL      0.046500
     12 H4         -4.2510    4.2680    5.4460 hc        1 MOL      0.036000
     13 H5         -4.7380    4.9120    3.8690 hc        1 MOL      0.036000
     14 H6         -5.4460    3.4000    4.4610 hc        1 MOL      0.036000
     15 H7         -0.8600   -0.6610    2.5250 hc        1 MOL      0.075800
     16 H8          0.3270    0.2350    3.5120 hc        1 MOL      0.075800
     17 H9         -2.5090    3.8420    3.6850 hc        1 MOL      0.051900
     18 H10        -3.6870    2.9850    2.7150 hc        1 MOL      0.051900
     19 H11        -2.7660    2.1420    5.5190 h1        1 MOL      0.056200
     20 H12        -3.9520    1.2650    4.5180 h1        1 MOL      0.056200
@<TRIPOS>BOND
     1    1    4 1   
     2    1    7 2   
     3    1    8 1   
     4    2    4 1   
     5    3    5 1   
     6    5    6 1   
     7    6    8 1   
     8    2    9 1   
     9    2   10 1   
    10    2   11 1   
    11    3   12 1   
    12    3   13 1   
    13    3   14 1   
    14    4   15 1   
    15    4   16 1   
    16    5   17 1   
    17    5   18 1   
    18    6   19 1   
    19    6   20 1   
@<TRIPOS>SUBSTRUCTURE
     1 R0_         1 TEMP              0 ****  ****    0 ROOT
