@<TRIPOS>MOLECULE
hexan_1_ol
   21    20     1     0     0
SMALL
No Charge or Current Charge


@<TRIPOS>ATOM
      1 C1          1.7830   -1.3580    0.9180 c3        1 MOL     -0.089900
      2 C2          1.1440   -1.8870    2.1930 c3        1 MOL     -0.077800
      3 C3         -0.1230   -1.1070    2.5460 c3        1 MOL     -0.076700
      4 C4         -0.7660   -1.5520    3.8620 c3        1 MOL     -0.074400
      5 C5         -2.0460   -0.7900    4.2020 c3        1 MOL     -0.116600
      6 C6         -2.6300   -1.2440    5.5330 c3        1 MOL      0.129400
      7 O1         -3.8210   -0.5120    5.7860 oh        1 MOL     -0.600200
      8 H1          2.6850   -1.9320    0.6800 hc        1 MOL      0.031900
      9 H2          1.0950   -1.4410    0.0710 hc        1 MOL      0.031900
     10 H3          2.0690   -0.3070    1.0280 hc        1 MOL      0.031900
     11 H4          1.8670   -1.8140    3.0140 hc        1 MOL      0.038000
     12 H5          0.9120   -2.9480    2.0540 hc        1 MOL      0.038000
     13 H6         -0.8520   -1.1960    1.7310 hc        1 MOL      0.039000
     14 H7          0.1250   -0.0410    2.6310 hc        1 MOL      0.039000
     15 H8         -0.0360   -1.4010    4.6670 hc        1 MOL      0.042100
     16 H9         -0.9750   -2.6280    3.8230 hc        1 MOL      0.042100
     17 H10        -2.8000   -0.9280    3.4190 hc        1 MOL      0.044600
     18 H11        -1.8470    0.2880    4.2420 hc        1 MOL      0.044600
     19 H12        -2.8750   -2.3110    5.5080 h1        1 MOL      0.043200
     20 H13        -1.9270   -1.0590    6.3520 h1        1 MOL      0.043200
     21 H14        -3.9590    0.0710    5.0220 ho        1 MOL      0.396600
@<TRIPOS>BOND
     1    1    2 1   
     2    2    3 1   
     3    3    4 1   
     4    4    5 1   
     5    5    6 1   
     6    6    7 1   
     7    1    8 1   
     8    1    9 1   
     9    1   10 1   
    10    2   11 1   
    11    2   12 1   
    12    3   13 1   
    13    3   14 1   
    14    4   15 1   
    15    4   16 1   
    16    5   17 1   
    17    5   18 1   
    18    6   19 1   
    19    6   20 1   
    20    7   21 1   
@<TRIPOS>SUBSTRUCTURE
     1 R0_         1 TEMP              0 ****  ****    0 ROOT
