@<TRIPOS>MOLECULE
di_n_propylamine
   22    21     1     0     0
SMALL
No Charge or Current Charge


@<TRIPOS>ATOM
      1 C1         -1.5500   -1.2780    0.9740 c3        1 MOL     -0.088900
      2 C2          3.4120    0.6160    6.1740 c3        1 MOL     -0.088900
      3 C3         -1.3230   -0.8630    2.4200 c3        1 MOL     -0.079300
      4 C4          1.9480    0.3580    5.8520 c3        1 MOL     -0.079300
      5 C5          0.1580   -0.6240    2.7040 c3        1 MOL      0.170800
      6 C6          1.7610   -0.0260    4.3870 c3        1 MOL      0.170800
      7 N1          0.3510   -0.2480    4.0990 n3        1 MOL     -0.832300
      8 H1         -1.2020   -0.5030    0.2840 hc        1 MOL      0.033300
      9 H2         -1.0180   -2.2070    0.7450 hc        1 MOL      0.033300
     10 H3         -2.6160   -1.4430    0.7900 hc        1 MOL      0.033300
     11 H4          4.0190   -0.2760    5.9860 hc        1 MOL      0.033300
     12 H5          3.8090    1.4360    5.5670 hc        1 MOL      0.033300
     13 H6          3.5270    0.8880    7.2280 hc        1 MOL      0.033300
     14 H7         -1.7120   -1.6470    3.0820 hc        1 MOL      0.042200
     15 H8         -1.8990    0.0480    2.6240 hc        1 MOL      0.042200
     16 H9          1.3680    1.2590    6.0820 hc        1 MOL      0.042200
     17 H10         1.5760   -0.4430    6.5030 hc        1 MOL      0.042200
     18 H11         0.5440    0.1710    2.0570 h1        1 MOL      0.024900
     19 H12         0.7330   -1.5330    2.4960 h1        1 MOL      0.024900
     20 H13         2.3250   -0.9370    4.1580 h1        1 MOL      0.024900
     21 H14         2.1370    0.7710    3.7370 h1        1 MOL      0.024900
     22 H15        -0.1700    0.6070    4.2900 hn        1 MOL      0.358600
@<TRIPOS>BOND
     1    1    3 1   
     2    2    4 1   
     3    3    5 1   
     4    4    6 1   
     5    5    7 1   
     6    6    7 1   
     7    1    8 1   
     8    1    9 1   
     9    1   10 1   
    10    2   11 1   
    11    2   12 1   
    12    2   13 1   
    13    3   14 1   
    14    3   15 1   
    15    4   16 1   
    16    4   17 1   
    17    5   18 1   
    18    5   19 1   
    19    6   20 1   
    20    6   21 1   
    21    7   22 1   
@<TRIPOS>SUBSTRUCTURE
     1 R0_         1 TEMP              0 ****  ****    0 ROOT
