@<TRIPOS>MOLECULE
5-bromouracil
   12    12     1     0     0
SMALL
No Charge or Current Charge


@<TRIPOS>ATOM
      1 C1         -1.2200    0.5240    1.5610 cc        1 MOL      0.081400
      2 C2         -2.1940    0.1880    2.4140 cd        1 MOL     -0.247100
      3 C3         -2.7820   -1.1800    2.3230 c         1 MOL      0.728500
      4 C4         -1.2180   -1.6240    0.4410 c         1 MOL      0.803500
      5 N1         -0.7410   -0.3340    0.6090 n         1 MOL     -0.465900
      6 N2         -2.2350   -1.9830    1.3280 n         1 MOL     -0.583100
      7 O1         -3.6780   -1.5570    3.0740 o         1 MOL     -0.581600
      8 O2         -0.7830   -2.3920   -0.4180 o         1 MOL     -0.626200
      9 Br1        -2.8430    1.3570    3.7080 br        1 MOL     -0.002900
     10 H1         -0.7470    1.5000    1.5690 h4        1 MOL      0.175000
     11 H2         -0.0000   -0.0090   -0.0050 hn        1 MOL      0.359300
     12 H3         -2.6120   -2.9220    1.2370 hn        1 MOL      0.358900
@<TRIPOS>BOND
     1    1    2 2   
     2    1    5 1   
     3    2    3 1   
     4    2    9 1   
     5    3    6 1   
     6    3    7 2   
     7    4    5 1   
     8    4    6 1   
     9    4    8 2   
    10    1   10 1   
    11    5   11 1   
    12    6   12 1   
@<TRIPOS>SUBSTRUCTURE
     1 MOL         1 TEMP              0 ****  ****    0 ROOT
