@<TRIPOS>MOLECULE
methyl_methanesulfonate
   12    11     1     0     0
SMALL
No Charge or Current Charge


@<TRIPOS>ATOM
      1 C1          0.8890   -0.5210    0.3640 c3        1 MOL      0.165600
      2 C2          4.3140    1.3850    0.5950 c3        1 MOL     -0.391900
      3 O1          3.9560   -1.1140   -0.0960 o         1 MOL     -0.658700
      4 O2          3.4010   -0.4040    2.2730 o         1 MOL     -0.658700
      5 O3          1.9820    0.3850    0.3490 os        1 MOL     -0.569700
      6 S1          3.4450   -0.1410    0.8490 s6        1 MOL      1.593400
      7 H1          1.2600   -1.5380    0.5130 h1        1 MOL      0.047200
      8 H2          0.3460   -0.4540   -0.5820 h1        1 MOL      0.047200
      9 H3          0.2200   -0.2560    1.1860 h1        1 MOL      0.047200
     10 H4          4.9250    1.5850    1.4760 h1        1 MOL      0.126200
     11 H5          4.9430    1.2800   -0.2910 h1        1 MOL      0.126200
     12 H6          3.5800    2.1790    0.4510 h1        1 MOL      0.126200
@<TRIPOS>BOND
     1    1    5 1   
     2    2    6 1   
     3    3    6 2   
     4    4    6 2   
     5    5    6 1   
     6    1    7 1   
     7    1    8 1   
     8    1    9 1   
     9    2   10 1   
    10    2   11 1   
    11    2   12 1   
@<TRIPOS>SUBSTRUCTURE
     1 R0_         1 TEMP              0 ****  ****    0 ROOT
