@<TRIPOS>MOLECULE
4_chloro_3_methylphenol
   16    16     1     0     0
SMALL
No Charge or Current Charge


@<TRIPOS>ATOM
      1 C1          0.8180   -0.4390    0.5640 ca        1 MOL     -0.154600
      2 C2          0.7990   -0.4060    1.9590 ca        1 MOL     -0.087200
      3 C3          2.9370   -1.5970    0.6200 ca        1 MOL     -0.210100
      4 C4          2.9180   -1.5650    2.0140 ca        1 MOL     -0.016400
      5 C5          1.8870   -1.0340   -0.1050 ca        1 MOL      0.130200
      6 C6          1.8500   -0.9690    2.6840 ca        1 MOL     -0.022600
      7 C7          4.0630   -2.1790    2.7540 c3        1 MOL     -0.065600
      8 O1          1.9050   -1.0660   -1.4660 oh        1 MOL     -0.496000
      9 Cl1         1.7920   -0.9100    4.4080 cl        1 MOL     -0.097500
     10 H1         -0.0030    0.0020    0.0050 ha        1 MOL      0.155500
     11 H2         -0.0410    0.0620    2.4650 ha        1 MOL      0.149400
     12 H3          3.7680   -2.0600    0.0930 ha        1 MOL      0.138000
     13 H4          4.5640   -1.4240    3.3700 hc        1 MOL      0.051900
     14 H5          3.7210   -2.9920    3.4050 hc        1 MOL      0.051900
     15 H6          4.7960   -2.6090    2.0610 hc        1 MOL      0.051900
     16 H7          2.6750   -1.5860   -1.7580 ho        1 MOL      0.421200
@<TRIPOS>BOND
     1    1    2 ar  
     2    1    5 ar  
     3    2    6 ar  
     4    3    4 ar  
     5    3    5 ar  
     6    4    6 ar  
     7    4    7 1   
     8    5    8 1   
     9    6    9 1   
    10    1   10 1   
    11    2   11 1   
    12    3   12 1   
    13    7   13 1   
    14    7   14 1   
    15    7   15 1   
    16    8   16 1   
@<TRIPOS>SUBSTRUCTURE
     1 R0_         1 TEMP              0 ****  ****    0 ROOT
