@<TRIPOS>MOLECULE
hexanal
   19    18     1     0     0
SMALL
No Charge or Current Charge


@<TRIPOS>ATOM
      1 C1          1.0800    2.1730   -6.8040 c         1 MOL      0.560200
      2 C2         -0.1640   -0.2890   -1.0440 c3        1 MOL     -0.090200
      3 C3          0.5540    1.1250   -5.8510 c3        1 MOL     -0.197700
      4 C4          0.4170    0.7620   -1.9770 c3        1 MOL     -0.077400
      5 C5          0.7710    1.4610   -4.3780 c3        1 MOL     -0.071900
      6 C6          0.1590    0.4130   -3.4430 c3        1 MOL     -0.079000
      7 O1          1.6920    3.1810   -6.4700 o         1 MOL     -0.523000
      8 H1          0.8560    1.9850   -7.8690 h4        1 MOL     -0.008500
      9 H2          0.0290   -0.0180   -0.0010 hc        1 MOL      0.032900
     10 H3          0.2860   -1.2690   -1.2290 hc        1 MOL      0.032900
     11 H4         -1.2470   -0.3770   -1.1770 hc        1 MOL      0.032900
     12 H5          1.0230    0.1690   -6.1050 hc        1 MOL      0.067700
     13 H6         -0.5200    1.0340   -6.0500 hc        1 MOL      0.067700
     14 H7          1.4950    0.8450   -1.7980 hc        1 MOL      0.038700
     15 H8         -0.0280    1.7360   -1.7420 hc        1 MOL      0.038700
     16 H9          1.8410    1.5700   -4.1670 hc        1 MOL      0.047200
     17 H10         0.3040    2.4320   -4.1720 hc        1 MOL      0.047200
     18 H11        -0.9210    0.3510   -3.6200 hc        1 MOL      0.040800
     19 H12         0.5780   -0.5770   -3.6600 hc        1 MOL      0.040800
@<TRIPOS>BOND
     1    1    3 1   
     2    1    7 2   
     3    2    4 1   
     4    3    5 1   
     5    4    6 1   
     6    5    6 1   
     7    1    8 1   
     8    2    9 1   
     9    2   10 1   
    10    2   11 1   
    11    3   12 1   
    12    3   13 1   
    13    4   14 1   
    14    4   15 1   
    15    5   16 1   
    16    5   17 1   
    17    6   18 1   
    18    6   19 1   
@<TRIPOS>SUBSTRUCTURE
     1 R0_         1 TEMP              0 ****  ****    0 ROOT
