@<TRIPOS>MOLECULE
2_chloro_2_methylpropane
   14    13     1     0     0
SMALL
No Charge or Current Charge


@<TRIPOS>ATOM
      1 C1          0.7750    0.2120   -0.7460 c3        1 MOL     -0.096100
      2 C2         -0.8100    1.6430   -2.0700 c3        1 MOL     -0.096100
      3 C3          1.6690    1.8600   -2.4170 c3        1 MOL     -0.096100
      4 C4          0.5640    1.5790   -1.3990 c3        1 MOL      0.080600
      5 Cl1         0.6330    2.8390   -0.1190 cl        1 MOL     -0.215200
      6 H1          1.7480    0.1540   -0.2440 hc        1 MOL      0.047000
      7 H2         -0.0000    0.0000    0.0000 hc        1 MOL      0.047000
      8 H3          0.7410   -0.5890   -1.4930 hc        1 MOL      0.047000
      9 H4         -1.6160    1.4600   -1.3500 hc        1 MOL      0.047000
     10 H5         -0.9860    2.6220   -2.5290 hc        1 MOL      0.047000
     11 H6         -0.8950    0.8880   -2.8590 hc        1 MOL      0.047000
     12 H7          2.6600    1.8370   -1.9500 hc        1 MOL      0.047000
     13 H8          1.5430    2.8430   -2.8850 hc        1 MOL      0.047000
     14 H9          1.6650    1.1110   -3.2170 hc        1 MOL      0.047000
@<TRIPOS>BOND
     1    1    4 1   
     2    2    4 1   
     3    3    4 1   
     4    4    5 1   
     5    1    6 1   
     6    1    7 1   
     7    1    8 1   
     8    2    9 1   
     9    2   10 1   
    10    2   11 1   
    11    3   12 1   
    12    3   13 1   
    13    3   14 1   
@<TRIPOS>SUBSTRUCTURE
     1 R0_         1 TEMP              0 ****  ****    0 ROOT
