@<TRIPOS>MOLECULE
14_dioxane
   14    14     1     0     0
SMALL
No Charge or Current Charge


@<TRIPOS>ATOM
      1 C1         -0.4850   -0.3530    0.9150 c3        1 MOL      0.094100
      2 C2         -0.1540   -1.8160    1.1640 c3        1 MOL      0.094100
      3 C3         -0.6070    0.0150    3.2350 c3        1 MOL      0.094100
      4 C4         -0.2750   -1.4480    3.4840 c3        1 MOL      0.094100
      5 O1         -0.0130    0.4410    2.0060 os        1 MOL     -0.416400
      6 O2         -0.7470   -2.2420    2.3930 os        1 MOL     -0.416400
      7 H1          0.0000   -0.0000   -0.0000 h1        1 MOL      0.057100
      8 H2         -1.5660   -0.2030    0.8120 h1        1 MOL      0.057100
      9 H3         -0.5490   -2.4420    0.3580 h1        1 MOL      0.057100
     10 H4          0.9290   -1.9730    1.2230 h1        1 MOL      0.057100
     11 H5         -1.6900    0.1710    3.1750 h1        1 MOL      0.057100
     12 H6         -0.2120    0.6410    4.0410 h1        1 MOL      0.057100
     13 H7          0.8060   -1.5980    3.5860 h1        1 MOL      0.057100
     14 H8         -0.7600   -1.8010    4.3990 h1        1 MOL      0.057100
@<TRIPOS>BOND
     1    1    2 1   
     2    1    5 1   
     3    2    6 1   
     4    3    4 1   
     5    3    5 1   
     6    4    6 1   
     7    1    7 1   
     8    1    8 1   
     9    2    9 1   
    10    2   10 1   
    11    3   11 1   
    12    3   12 1   
    13    4   13 1   
    14    4   14 1   
@<TRIPOS>SUBSTRUCTURE
     1 R0_         1 TEMP              0 ****  ****    0 ROOT
