@<TRIPOS>MOLECULE
acetophenone
   17    17     1     0     0
SMALL
No Charge or Current Charge


@<TRIPOS>ATOM
      1 C1          1.8850   -1.0380   -0.1090 ca        1 MOL     -0.101000
      2 C2          0.8180   -0.4410    0.5630 ca        1 MOL     -0.145300
      3 C3          2.9350   -1.6040    0.6140 ca        1 MOL     -0.145300
      4 C4          0.8010   -0.4100    1.9570 ca        1 MOL     -0.082100
      5 C5          2.9180   -1.5730    2.0080 ca        1 MOL     -0.082100
      6 C6          1.8510   -0.9770    2.6800 ca        1 MOL     -0.176600
      7 C7          1.8330   -0.9450    4.1340 c         1 MOL      0.572300
      8 C8          0.6700   -0.2930    4.8740 c3        1 MOL     -0.193800
      9 O1          2.7570   -1.4430    4.8070 o         1 MOL     -0.534800
     10 H1          1.8970   -1.0610   -1.1950 ha        1 MOL      0.134700
     11 H2          0.0000    0.0000   -0.0000 ha        1 MOL      0.136600
     12 H3          3.7650   -2.0690    0.0910 ha        1 MOL      0.136600
     13 H4         -0.0360    0.0570    2.4700 ha        1 MOL      0.145100
     14 H5          3.7420   -2.0180    2.5610 ha        1 MOL      0.145100
     15 H6         -0.2580   -0.8230    4.6420 hc        1 MOL      0.063600
     16 H7          0.6000    0.7620    4.5970 hc        1 MOL      0.063600
     17 H8          0.8300   -0.3480    5.9560 hc        1 MOL      0.063600
@<TRIPOS>BOND
     1    1    2 ar  
     2    1    3 ar  
     3    2    4 ar  
     4    3    5 ar  
     5    4    6 ar  
     6    5    6 ar  
     7    6    7 1   
     8    7    8 1   
     9    7    9 2   
    10    1   10 1   
    11    2   11 1   
    12    3   12 1   
    13    4   13 1   
    14    5   14 1   
    15    8   15 1   
    16    8   16 1   
    17    8   17 1   
@<TRIPOS>SUBSTRUCTURE
     1 R0_         1 TEMP              0 ****  ****    0 ROOT
