@<TRIPOS>MOLECULE
2_bromopropane
   11    10     1     0     0
SMALL
No Charge or Current Charge


@<TRIPOS>ATOM
      1 C1          0.7780   -0.6550    0.4070 c3        1 MOL     -0.094800
      2 C2          1.2370    0.9190    2.3230 c3        1 MOL     -0.094800
      3 C3          0.8740   -0.4980    1.9140 c3        1 MOL      0.026000
      4 Br1         2.2420   -1.7220    2.5920 br        1 MOL     -0.197800
      5 H1          0.5230   -1.6850    0.1320 hc        1 MOL      0.047300
      6 H2          0.0000    0.0000    0.0000 hc        1 MOL      0.047300
      7 H3          1.7220   -0.4030   -0.0880 hc        1 MOL      0.047300
      8 H4          1.3100    1.0100    3.4120 hc        1 MOL      0.047300
      9 H5          0.4750    1.6270    1.9790 hc        1 MOL      0.047300
     10 H6          2.2000    1.2290    1.8990 hc        1 MOL      0.047300
     11 H7         -0.0620   -0.8050    2.3910 h1        1 MOL      0.077500
@<TRIPOS>BOND
     1    1    3 1   
     2    2    3 1   
     3    3    4 1   
     4    1    5 1   
     5    1    6 1   
     6    1    7 1   
     7    2    8 1   
     8    2    9 1   
     9    2   10 1   
    10    3   11 1   
@<TRIPOS>SUBSTRUCTURE
     1 R0_         1 TEMP              0 ****  ****    0 ROOT
