@<TRIPOS>MOLECULE
SAMPL4_009
   23    23     1     0     0
SMALL
bcc


@<TRIPOS>ATOM
      1 C1          1.6890   -0.9010    3.3120 ca        1 MOL     -0.190600
      2 C2          2.9110   -1.5650    0.8940 ca        1 MOL      0.123100
      3 C3          1.6780   -0.9120    0.8960 ca        1 MOL      0.051100
      4 C4          3.5320   -1.8860    2.1000 ca        1 MOL      0.051100
      5 C5          1.0670   -0.5800    2.1060 ca        1 MOL      0.057900
      6 C6          2.9220   -1.5540    3.3100 ca        1 MOL      0.057900
      7 C7          1.0490   -0.5530    4.5800 c         1 MOL      0.587500
      8 C8          0.2110   -1.5840   -0.8510 c3        1 MOL      0.110200
      9 C9          4.7150   -3.9490    2.0730 c3        1 MOL      0.110200
     10 O1         -0.0580   -0.9760    4.9060 o         1 MOL     -0.489100
     11 O2          3.5080   -1.8890   -0.2890 oh        1 MOL     -0.482100
     12 O3          1.0860   -0.6060   -0.2950 os        1 MOL     -0.325900
     13 O4          4.7390   -2.5250    2.0770 os        1 MOL     -0.325900
     14 Cl1        -0.4640    0.2320    2.0880 cl        1 MOL     -0.048900
     15 Cl2         3.7110   -1.9610    4.7980 cl        1 MOL     -0.048900
     16 H1          1.6090    0.1240    5.2570 h4        1 MOL      0.020200
     17 H2         -0.1930   -1.2160   -1.7970 h1        1 MOL      0.050033
     18 H3         -0.6020   -1.7880   -0.1490 h1        1 MOL      0.050033
     19 H4          0.7730   -2.5030   -1.0300 h1        1 MOL      0.050033
     20 H5          5.7390   -4.3320    2.0540 h1        1 MOL      0.050033
     21 H6          4.1660   -4.3030    1.1970 h1        1 MOL      0.050033
     22 H7          4.2150   -4.2990    2.9800 h1        1 MOL      0.050033
     23 H8          4.3530   -2.3360   -0.1240 ho        1 MOL      0.443000
@<TRIPOS>BOND
     1    1    5 ar  
     2    1    6 ar  
     3    1    7 1   
     4    2    3 ar  
     5    2    4 ar  
     6    2   11 1   
     7    3    5 ar  
     8    3   12 1   
     9    4    6 ar  
    10    4   13 1   
    11    5   14 1   
    12    6   15 1   
    13    7   10 2   
    14    8   12 1   
    15    9   13 1   
    16    7   16 1   
    17    8   17 1   
    18    8   18 1   
    19    8   19 1   
    20    9   20 1   
    21    9   21 1   
    22    9   22 1   
    23   11   23 1   
@<TRIPOS>SUBSTRUCTURE
     1 TMP         1 TEMP              0 ****  ****    0 ROOT
