@<TRIPOS>MOLECULE
135_trimethylbenzene
   21    21     1     0     0
SMALL
No Charge or Current Charge


@<TRIPOS>ATOM
      1 C1          1.8990   -1.0130   -0.0780 ca        1 MOL     -0.135500
      2 C2          0.8130   -0.3270    1.9680 ca        1 MOL     -0.135500
      3 C3          2.9470   -1.4560    2.0530 ca        1 MOL     -0.135500
      4 C4          0.8260   -0.4080    0.5750 ca        1 MOL     -0.061300
      5 C5          2.9600   -1.5370    0.6600 ca        1 MOL     -0.061300
      6 C6          1.8740   -0.8520    2.7070 ca        1 MOL     -0.061300
      7 C7         -0.3080    0.1530   -0.2150 c3        1 MOL     -0.059900
      8 C8          4.1080   -2.1840   -0.0390 c3        1 MOL     -0.059900
      9 C9          1.8600   -0.7650    4.1960 c3        1 MOL     -0.059900
     10 H1          1.9100   -1.0760   -1.1640 ha        1 MOL      0.129900
     11 H2         -0.0240    0.1450    2.4770 ha        1 MOL      0.129900
     12 H3          3.7750   -1.8650    2.6290 ha        1 MOL      0.129900
     13 H4         -1.1960   -0.4830   -0.1140 hc        1 MOL      0.042300
     14 H5         -0.5650    1.1660    0.1210 hc        1 MOL      0.042300
     15 H6         -0.0520    0.2270   -1.2800 hc        1 MOL      0.042300
     16 H7          4.8780   -2.4800    0.6840 hc        1 MOL      0.042300
     17 H8          3.7860   -3.0780   -0.5890 hc        1 MOL      0.042300
     18 H9          4.5610   -1.5050   -0.7720 hc        1 MOL      0.042300
     19 H10         2.7700   -0.2730    4.5580 hc        1 MOL      0.042300
     20 H11         0.9910   -0.1970    4.5530 hc        1 MOL      0.042300
     21 H12         1.7970   -1.7620    4.6520 hc        1 MOL      0.042300
@<TRIPOS>BOND
     1    1    4 ar  
     2    1    5 ar  
     3    2    4 ar  
     4    2    6 ar  
     5    3    5 ar  
     6    3    6 ar  
     7    4    7 1   
     8    5    8 1   
     9    6    9 1   
    10    1   10 1   
    11    2   11 1   
    12    3   12 1   
    13    7   13 1   
    14    7   14 1   
    15    7   15 1   
    16    8   16 1   
    17    8   17 1   
    18    8   18 1   
    19    9   19 1   
    20    9   20 1   
    21    9   21 1   
@<TRIPOS>SUBSTRUCTURE
     1 R0_         1 TEMP              0 ****  ****    0 ROOT
