@<TRIPOS>MOLECULE
CUP08055_AM1BCC_v1_0
   20    19     1     0     0
SMALL
No Charge or Current Charge


@<TRIPOS>ATOM
      1 C1          2.0020   -1.0980   -1.7610 c3        1 MOL      0.164000
      2 C2          0.2420    2.4470   -1.9780 c3        1 MOL      0.164000
      3 C3         -1.7470   -0.9080   -2.9060 c3        1 MOL     -0.070100
      4 C4         -1.8120   -2.2040   -2.0870 c3        1 MOL      0.253500
      5 O1          0.5920    0.2730   -3.9110 o         1 MOL     -0.767100
      6 O2         -1.9320   -1.1350   -4.3320 oh        1 MOL     -0.580200
      7 O3          0.6400   -0.7880   -1.5490 os        1 MOL     -0.569500
      8 O4         -0.6430    1.3470   -1.8880 os        1 MOL     -0.569500
      9 P1         -0.2100   -0.0020   -2.6760 p5        1 MOL      1.460400
     10 Cl1        -3.4590   -2.9340   -2.3630 cl        1 MOL     -0.099300
     11 Cl2        -0.6330   -3.4400   -2.6020 cl        1 MOL     -0.099300
     12 Cl3        -1.6790   -1.9220   -0.3290 cl        1 MOL     -0.099300
     13 H1          2.4450   -1.3910   -0.8060 h1        1 MOL      0.045600
     14 H2          2.5500   -0.2380   -2.1510 h1        1 MOL      0.045600
     15 H3          2.0870   -1.9380   -2.4570 h1        1 MOL      0.045600
     16 H4         -0.0920    3.2230   -1.2860 h1        1 MOL      0.045600
     17 H5          0.2310    2.8500   -2.9940 h1        1 MOL      0.045600
     18 H6          1.2570    2.1420   -1.7070 h1        1 MOL      0.045600
     19 H7         -2.5710   -0.2470   -2.6180 h1        1 MOL      0.103200
     20 H8         -2.7880   -1.5850   -4.4610 ho        1 MOL      0.436000
@<TRIPOS>BOND
     1    1    7 1   
     2    2    8 1   
     3    3    4 1   
     4    3    6 1   
     5    3    9 1   
     6    4   10 1   
     7    4   11 1   
     8    4   12 1   
     9    5    9 2   
    10    7    9 1   
    11    8    9 1   
    12    1   13 1   
    13    1   14 1   
    14    1   15 1   
    15    2   16 1   
    16    2   17 1   
    17    2   18 1   
    18    3   19 1   
    19    6   20 1   
@<TRIPOS>SUBSTRUCTURE
     1 R0_         1 TEMP              0 ****  ****    0 ROOT
