@<TRIPOS>MOLECULE
2_propoxyethanol
   19    18     1     0     0
SMALL
No Charge or Current Charge


@<TRIPOS>ATOM
      1 C1         -0.0090   -0.6550    0.8770 c3        1 MOL     -0.089100
      2 C2          1.2440   -0.4430    1.7060 c3        1 MOL     -0.080000
      3 C3          1.2750   -1.3490    2.9270 c3        1 MOL      0.134600
      4 C4          3.8460   -1.6030    5.5460 c3        1 MOL      0.129700
      5 C5          2.5500   -1.9090    4.8200 c3        1 MOL      0.105300
      6 O1          4.9400   -1.8940    4.6860 oh        1 MOL     -0.602900
      7 O2          2.4630   -1.0900    3.6620 os        1 MOL     -0.433800
      8 H1         -0.9080   -0.4410    1.4640 hc        1 MOL      0.035500
      9 H2         -0.0060    0.0090    0.0070 hc        1 MOL      0.035500
     10 H3         -0.0720   -1.6870    0.5170 hc        1 MOL      0.035500
     11 H4          1.3080    0.6040    2.0230 hc        1 MOL      0.049600
     12 H5          2.1330   -0.6260    1.0900 hc        1 MOL      0.049600
     13 H6          0.4150   -1.1590    3.5770 h1        1 MOL      0.026000
     14 H7          1.2710   -2.4040    2.6320 h1        1 MOL      0.026000
     15 H8          3.9480   -2.2170    6.4470 h1        1 MOL      0.044600
     16 H9          3.8930   -0.5440    5.8150 h1        1 MOL      0.044600
     17 H10         1.6830   -1.6970    5.4540 h1        1 MOL      0.039800
     18 H11         2.5270   -2.9560    4.5030 h1        1 MOL      0.039800
     19 H12         5.5110   -2.5180    5.1620 ho        1 MOL      0.409500
@<TRIPOS>BOND
     1    1    2 1   
     2    2    3 1   
     3    3    7 1   
     4    4    5 1   
     5    4    6 1   
     6    5    7 1   
     7    1    8 1   
     8    1    9 1   
     9    1   10 1   
    10    2   11 1   
    11    2   12 1   
    12    3   13 1   
    13    3   14 1   
    14    4   15 1   
    15    4   16 1   
    16    5   17 1   
    17    5   18 1   
    18    6   19 1   
@<TRIPOS>SUBSTRUCTURE
     1 R0_         1 TEMP              0 ****  ****    0 ROOT
