@<TRIPOS>MOLECULE
4_nitrophenol
   15    15     1     0     0
SMALL
No Charge or Current Charge


@<TRIPOS>ATOM
      1 C1          0.8180   -0.4390    0.5640 ca        1 MOL     -0.031900
      2 C2          2.9370   -1.5970    0.6200 ca        1 MOL     -0.031900
      3 C3          0.7990   -0.4060    1.9590 ca        1 MOL     -0.196200
      4 C4          2.9180   -1.5650    2.0140 ca        1 MOL     -0.196200
      5 C5          1.8870   -1.0340   -0.1050 ca        1 MOL     -0.212300
      6 C6          1.8500   -0.9690    2.6840 ca        1 MOL      0.167500
      7 N1          1.9040   -1.0690   -1.5250 no        1 MOL      0.316700
      8 O1          0.9480   -0.5590   -2.1570 o         1 MOL     -0.208200
      9 O2          2.8750   -1.6100   -2.1070 o         1 MOL     -0.208200
     10 O3          1.8320   -0.9360    4.0440 oh        1 MOL     -0.484600
     11 H1         -0.0070    0.0030    0.0120 ha        1 MOL      0.169700
     12 H2          3.7760   -2.0650    0.1100 ha        1 MOL      0.169700
     13 H3         -0.0350    0.0600    2.4750 ha        1 MOL      0.158000
     14 H4          3.7400   -2.0040    2.5730 ha        1 MOL      0.158000
     15 H5          1.1760   -0.2770    4.3350 ho        1 MOL      0.430300
@<TRIPOS>BOND
     1    1    3 ar  
     2    1    5 ar  
     3    2    4 ar  
     4    2    5 ar  
     5    3    6 ar  
     6    4    6 ar  
     7    5    7 1   
     8    6   10 1   
     9    7    8 1   
    10    7    9 1   
    11    1   11 1   
    12    2   12 1   
    13    3   13 1   
    14    4   14 1   
    15   10   15 1   
@<TRIPOS>SUBSTRUCTURE
     1 R0_         1 TEMP              0 ****  ****    0 ROOT
