@<TRIPOS>MOLECULE
isopropylbenzene
   21    21     1     0     0
SMALL
No Charge or Current Charge


@<TRIPOS>ATOM
      1 C1          1.8850   -1.0380   -0.1090 ca        1 MOL     -0.133300
      2 C2          0.8180   -0.4410    0.5630 ca        1 MOL     -0.129000
      3 C3          2.9350   -1.6040    0.6140 ca        1 MOL     -0.129000
      4 C4          0.8010   -0.4100    1.9570 ca        1 MOL     -0.126500
      5 C5          2.9180   -1.5730    2.0080 ca        1 MOL     -0.126500
      6 C6          1.8510   -0.9770    2.6800 ca        1 MOL     -0.063500
      7 C7          2.5110    0.3170    4.7400 c3        1 MOL     -0.084900
      8 C8          2.4630   -2.2030    4.7950 c3        1 MOL     -0.084900
      9 C9          1.8330   -0.9440    4.1710 c3        1 MOL     -0.033100
     10 H1          1.8980   -1.0610   -1.1950 ha        1 MOL      0.129800
     11 H2          0.0000    0.0000   -0.0000 ha        1 MOL      0.129600
     12 H3          3.7650   -2.0680    0.0910 ha        1 MOL      0.129600
     13 H4         -0.0350    0.0570    2.4720 ha        1 MOL      0.130900
     14 H5          3.7400   -2.0170    2.5630 ha        1 MOL      0.130900
     15 H6          3.5790    0.3440    4.4990 hc        1 MOL      0.035200
     16 H7          2.4160    0.3650    5.8300 hc        1 MOL      0.035200
     17 H8          2.0510    1.2200    4.3230 hc        1 MOL      0.035200
     18 H9          1.9700   -3.1050    4.4160 hc        1 MOL      0.035200
     19 H10         2.3640   -2.2010    5.8860 hc        1 MOL      0.035200
     20 H11         3.5300   -2.2800    4.5590 hc        1 MOL      0.035200
     21 H12         0.7870   -0.9160    4.5330 hc        1 MOL      0.048700
@<TRIPOS>BOND
     1    1    2 ar  
     2    1    3 ar  
     3    2    4 ar  
     4    3    5 ar  
     5    4    6 ar  
     6    5    6 ar  
     7    6    9 1   
     8    7    9 1   
     9    8    9 1   
    10    1   10 1   
    11    2   11 1   
    12    3   12 1   
    13    4   13 1   
    14    5   14 1   
    15    7   15 1   
    16    7   16 1   
    17    7   17 1   
    18    8   18 1   
    19    8   19 1   
    20    8   20 1   
    21    9   21 1   
@<TRIPOS>SUBSTRUCTURE
     1 R0_         1 TEMP              0 ****  ****    0 ROOT
