@<TRIPOS>MOLECULE
flurbiprofen
   31    32     1     0     0
SMALL
No Charge or Current Charge


@<TRIPOS>ATOM
      1 C1          1.8850   -1.0360   -0.1130 ca        1 MOL     -0.121700
      2 C2          1.8400    0.1610    0.6020 ca        1 MOL     -0.133100
      3 C3          1.8870   -2.2550    0.5670 ca        1 MOL     -0.130100
      4 C4          1.7980    0.1400    1.9960 ca        1 MOL     -0.114500
      5 C5          1.8440   -2.2760    1.9610 ca        1 MOL     -0.105500
      6 C6          0.6750   -0.5260    4.7900 ca        1 MOL     -0.102000
      7 C7          0.6270   -0.5450    6.1840 ca        1 MOL     -0.131700
      8 C8          2.7410   -1.7140    6.2410 ca        1 MOL     -0.154000
      9 C9          1.8000   -1.0790    2.6760 cp        1 MOL     -0.045600
     10 C10         1.7550   -1.1010    4.1220 cp        1 MOL     -0.057500
     11 C11         1.6600   -1.1390    6.9100 ca        1 MOL     -0.067500
     12 C12         2.7890   -1.6940    4.8470 ca        1 MOL      0.136800
     13 C13         1.5430   -2.5810    8.9680 c         1 MOL      0.639600
     14 C14         2.7760   -0.4040    9.0700 c3        1 MOL     -0.091800
     15 C15         1.6100   -1.1590    8.4000 c3        1 MOL     -0.058300
     16 O1          1.5540   -3.5980    8.2870 o         1 MOL     -0.547400
     17 O2          1.4600   -2.6100   10.3250 oh        1 MOL     -0.605300
     18 F1          3.8340   -2.2510    4.2180 f         1 MOL     -0.133600
     19 H1          1.9180   -1.0200   -1.1980 ha        1 MOL      0.132800
     20 H2          1.8390    1.1090    0.0730 ha        1 MOL      0.132300
     21 H3          1.9210   -3.1860    0.0100 ha        1 MOL      0.134600
     22 H4          1.7640    1.0810    2.5400 ha        1 MOL      0.133600
     23 H5          1.8470   -3.2330    2.4770 ha        1 MOL      0.142100
     24 H6         -0.1380   -0.0580    4.2400 ha        1 MOL      0.143700
     25 H7         -0.2190   -0.0950    6.6970 ha        1 MOL      0.139100
     26 H8          3.5510   -2.1780    6.7970 ha        1 MOL      0.170800
     27 H9          3.7460   -0.8360    8.7970 hc        1 MOL      0.059900
     28 H10         2.7740    0.6500    8.7720 hc        1 MOL      0.053100
     29 H11         2.7110   -0.4420   10.1630 hc        1 MOL      0.046900
     30 H12         0.6800   -0.6560    8.7320 hc        1 MOL      0.089200
     31 H13         1.4090   -3.5050   10.7230 ho        1 MOL      0.445100
@<TRIPOS>BOND
     1    1    2 ar  
     2    1    3 ar  
     3    2    4 ar  
     4    3    5 ar  
     5    4    9 ar  
     6    5    9 ar  
     7    6    7 ar  
     8    6   10 ar  
     9    7   11 ar  
    10    8   11 ar  
    11    8   12 ar  
    12    9   10 1   
    13   10   12 ar  
    14   11   15 1   
    15   12   18 1   
    16   13   15 1   
    17   13   16 2   
    18   13   17 1   
    19   14   15 1   
    20    1   19 1   
    21    2   20 1   
    22    3   21 1   
    23    4   22 1   
    24    5   23 1   
    25    6   24 1   
    26    7   25 1   
    27    8   26 1   
    28   14   27 1   
    29   14   28 1   
    30   14   29 1   
    31   15   30 1   
    32   17   31 1   
@<TRIPOS>SUBSTRUCTURE
     1 FLU         1 TEMP              0 ****  ****    0 ROOT
