@<TRIPOS>MOLECULE
quinoline
   17    18     1     0     0
SMALL
No Charge or Current Charge


@<TRIPOS>ATOM
      1 C1          0.2060    2.0680   -0.5490 ca        1 MOL     -0.126900
      2 C2         -0.5110    0.8980   -0.3360 ca        1 MOL     -0.123900
      3 C3         -3.9130    4.2700   -1.8370 ca        1 MOL     -0.250000
      4 C4         -0.4590    3.2130   -0.9790 ca        1 MOL     -0.111500
      5 C5         -2.5420    4.3260   -1.6300 ca        1 MOL     -0.080000
      6 C6         -1.8910    0.8740   -0.5530 ca        1 MOL     -0.164500
      7 C7         -4.5450    3.0660   -1.6000 ca        1 MOL      0.411200
      8 C8         -1.8470    3.1880   -1.1970 ca        1 MOL     -0.148000
      9 C9         -2.5820    2.0030   -0.9830 ca        1 MOL      0.393400
     10 N1         -3.9120    1.9460   -1.1820 nb        1 MOL     -0.656900
     11 H1          1.2790    2.0900   -0.3830 ha        1 MOL      0.134600
     12 H2          0.0000    0.0000   -0.0000 ha        1 MOL      0.135500
     13 H3         -4.4660    5.1400   -2.1690 ha        1 MOL      0.143800
     14 H4          0.1120    4.1240   -1.1430 ha        1 MOL      0.133600
     15 H5         -2.0180    5.2620   -1.8090 ha        1 MOL      0.137900
     16 H6         -2.4300   -0.0560   -0.3780 ha        1 MOL      0.150400
     17 H7         -5.6150    2.9620   -1.7440 h4        1 MOL      0.021700
@<TRIPOS>BOND
     1    1    2 ar  
     2    1    4 ar  
     3    2    6 ar  
     4    3    5 ar  
     5    3    7 ar  
     6    4    8 ar  
     7    5    8 ar  
     8    6    9 ar  
     9    7   10 ar  
    10    8    9 ar  
    11    9   10 ar  
    12    1   11 1   
    13    2   12 1   
    14    3   13 1   
    15    4   14 1   
    16    5   15 1   
    17    6   16 1   
    18    7   17 1   
@<TRIPOS>SUBSTRUCTURE
     1 R0_         1 TEMP              0 ****  ****    0 ROOT
