@<TRIPOS>MOLECULE
E_oct_2_enal
   23    22     1     0     0
SMALL
No Charge or Current Charge


@<TRIPOS>ATOM
      1 C1          2.9380    3.1240   -0.6580 ce        1 MOL     -0.281300
      2 C2          2.6300    1.8540   -0.9480 c2        1 MOL     -0.089500
      3 C3          4.3460    3.4820   -0.4000 c         1 MOL      0.560000
      4 C4         -1.9730   -0.5820   -4.6370 c3        1 MOL     -0.090200
      5 C5          1.2270    1.3870   -1.2150 c3        1 MOL     -0.060300
      6 C6         -0.5460   -0.1470   -4.3420 c3        1 MOL     -0.077700
      7 C7          1.0310    0.8330   -2.6300 c3        1 MOL     -0.073000
      8 C8         -0.4150    0.4250   -2.9300 c3        1 MOL     -0.078700
      9 O1          4.6840    4.6280   -0.1310 o         1 MOL     -0.524400
     10 H1          2.1930    3.9090   -0.6070 ha        1 MOL      0.149300
     11 H2          3.4110    1.0990   -0.9800 ha        1 MOL      0.122400
     12 H3          5.0780    2.6600   -0.4630 h4        1 MOL     -0.009500
     13 H4         -2.2990   -1.3580   -3.9370 hc        1 MOL      0.032700
     14 H5         -2.0430   -0.9880   -5.6510 hc        1 MOL      0.032700
     15 H6         -2.6640    0.2630   -4.5610 hc        1 MOL      0.032700
     16 H7          0.9650    0.6210   -0.4760 hc        1 MOL      0.054400
     17 H8          0.5210    2.2130   -1.0670 hc        1 MOL      0.054400
     18 H9         -0.2410    0.6050   -5.0790 hc        1 MOL      0.038400
     19 H10         0.1230   -1.0070   -4.4590 hc        1 MOL      0.038400
     20 H11         1.6960   -0.0250   -2.7890 hc        1 MOL      0.043900
     21 H12         1.3370    1.6070   -3.3450 hc        1 MOL      0.043900
     22 H13        -1.0720    1.2980   -2.8260 hc        1 MOL      0.040800
     23 H14        -0.7530   -0.3250   -2.2070 hc        1 MOL      0.040800
@<TRIPOS>BOND
     1    1    2 2   
     2    1    3 1   
     3    2    5 1   
     4    3    9 2   
     5    4    6 1   
     6    5    7 1   
     7    6    8 1   
     8    7    8 1   
     9    1   10 1   
    10    2   11 1   
    11    3   12 1   
    12    4   13 1   
    13    4   14 1   
    14    4   15 1   
    15    5   16 1   
    16    5   17 1   
    17    6   18 1   
    18    6   19 1   
    19    7   20 1   
    20    7   21 1   
    21    8   22 1   
    22    8   23 1   
@<TRIPOS>SUBSTRUCTURE
     1 R0_         1 TEMP              0 ****  ****    0 ROOT
