@<TRIPOS>MOLECULE
but_1_ene
   12    11     1     0     0
SMALL
No Charge or Current Charge


@<TRIPOS>ATOM
      1 C1          0.6570   -1.0570   -0.4310 c2        1 MOL     -0.225300
      2 C2          1.9490   -0.7460   -0.2810 c2        1 MOL     -0.165100
      3 C3          3.1010    0.3360   -2.2120 c3        1 MOL     -0.087600
      4 C4          2.5720    0.5160   -0.7980 c3        1 MOL     -0.049400
      5 H1          0.2470   -1.9820   -0.0410 ha        1 MOL      0.110500
      6 H2         -0.0140   -0.3820   -0.9510 ha        1 MOL      0.110500
      7 H3          2.5930   -1.4390    0.2540 ha        1 MOL      0.116300
      8 H4          3.5610    1.2640   -2.5650 hc        1 MOL      0.033500
      9 H5          2.2950    0.0730   -2.9060 hc        1 MOL      0.033500
     10 H6          3.8590   -0.4540   -2.2560 hc        1 MOL      0.033500
     11 H7          1.8540    1.3440   -0.7840 hc        1 MOL      0.044900
     12 H8          3.3980    0.7980   -0.1340 hc        1 MOL      0.044900
@<TRIPOS>BOND
     1    1    2 2   
     2    2    4 1   
     3    3    4 1   
     4    1    5 1   
     5    1    6 1   
     6    2    7 1   
     7    3    8 1   
     8    3    9 1   
     9    3   10 1   
    10    4   11 1   
    11    4   12 1   
@<TRIPOS>SUBSTRUCTURE
     1 R0_         1 TEMP              0 ****  ****    0 ROOT
