@<TRIPOS>MOLECULE
4_methylpyridine
   14    14     1     0     0
SMALL
No Charge or Current Charge


@<TRIPOS>ATOM
      1 C1          0.1830   -0.3460    1.0110 ca        1 MOL     -0.249200
      2 C2          1.5260   -0.4070    3.0050 ca        1 MOL     -0.249200
      3 C3         -0.7040   -1.2000    1.6470 ca        1 MOL      0.395900
      4 C4          0.5790   -1.2580    3.5520 ca        1 MOL      0.395900
      5 C5          1.3170    0.0530    1.7100 ca        1 MOL     -0.028900
      6 C6          2.3050    0.9710    1.0730 c3        1 MOL     -0.067800
      7 N1         -0.5340   -1.6670    2.9040 nb        1 MOL     -0.669100
      8 H1         -0.0080   -0.0050   -0.0010 ha        1 MOL      0.142100
      9 H2          2.4010   -0.1140    3.5760 ha        1 MOL      0.142100
     10 H3         -1.6030   -1.5410    1.1450 h4        1 MOL      0.020700
     11 H4          0.6960   -1.6440    4.5590 h4        1 MOL      0.020700
     12 H5          3.3260    0.6050    1.2350 hc        1 MOL      0.048900
     13 H6          2.1330    1.0530   -0.0080 hc        1 MOL      0.048900
     14 H7          2.2300    1.9860    1.4840 hc        1 MOL      0.048900
@<TRIPOS>BOND
     1    1    3 ar  
     2    1    5 ar  
     3    2    4 ar  
     4    2    5 ar  
     5    3    7 ar  
     6    4    7 ar  
     7    5    6 1   
     8    1    8 1   
     9    2    9 1   
    10    3   10 1   
    11    4   11 1   
    12    6   12 1   
    13    6   13 1   
    14    6   14 1   
@<TRIPOS>SUBSTRUCTURE
     1 R0_         1 TEMP              0 ****  ****    0 ROOT
