@<TRIPOS>MOLECULE
NN_dimethylformamide
   12    11     1     0     0
SMALL
No Charge or Current Charge


@<TRIPOS>ATOM
      1 C1          2.8180   -1.4420    0.2530 c         1 MOL      0.657900
      2 C2          0.9280   -0.0770   -0.5740 c3        1 MOL      0.083100
      3 C3          0.7830   -2.5560   -0.6070 c3        1 MOL      0.083100
      4 N1          1.5480   -1.3610   -0.2930 n         1 MOL     -0.495700
      5 O1          3.5590   -0.5150    0.5590 o         1 MOL     -0.601700
      6 H1          3.1370   -2.4870    0.4010 h5        1 MOL      0.028600
      7 H2         -0.1340   -0.1380   -0.3260 h1        1 MOL      0.040800
      8 H3          1.0530    0.1500   -1.6350 h1        1 MOL      0.040800
      9 H4          1.4130    0.6890    0.0330 h1        1 MOL      0.040800
     10 H5         -0.0500   -2.6340    0.0940 h1        1 MOL      0.040800
     11 H6          1.4370   -3.4270   -0.5140 h1        1 MOL      0.040800
     12 H7          0.4090   -2.4770   -1.6300 h1        1 MOL      0.040800
@<TRIPOS>BOND
     1    1    4 1   
     2    1    5 2   
     3    2    4 1   
     4    3    4 1   
     5    1    6 1   
     6    2    7 1   
     7    2    8 1   
     8    2    9 1   
     9    3   10 1   
    10    3   11 1   
    11    3   12 1   
@<TRIPOS>SUBSTRUCTURE
     1 R0_         1 TEMP              0 ****  ****    0 ROOT
