@<TRIPOS>MOLECULE
2_naphthylamine
   20    21     1     0     0
SMALL
No Charge or Current Charge


@<TRIPOS>ATOM
      1 C1         -0.5710   -2.0560    0.2750 ca        1 MOL     -0.143300
      2 C2          0.3370   -1.0320    0.0230 ca        1 MOL     -0.117700
      3 C3         -0.1390   -3.3820    0.3040 ca        1 MOL     -0.104200
      4 C4          1.6820   -1.3310   -0.2010 ca        1 MOL     -0.130900
      5 C5          1.6630   -5.0300    0.1060 ca        1 MOL     -0.085100
      6 C6          3.0080   -5.3280   -0.1180 ca        1 MOL     -0.169500
      7 C7          3.4840   -2.9790   -0.3990 ca        1 MOL     -0.201900
      8 C8          1.2100   -3.7010    0.0800 ca        1 MOL     -0.071900
      9 C9          2.1350   -2.6600   -0.1750 ca        1 MOL      0.004500
     10 C10         3.9170   -4.3050   -0.3700 ca        1 MOL      0.144700
     11 N1          5.2760   -4.6090   -0.5940 nh        1 MOL     -0.824400
     12 H1         -1.6170   -1.8220    0.4480 ha        1 MOL      0.130500
     13 H2          0.0000   -0.0000    0.0010 ha        1 MOL      0.129700
     14 H3         -0.8670   -4.1660    0.5010 ha        1 MOL      0.129400
     15 H4          2.3740   -0.5150   -0.3970 ha        1 MOL      0.130900
     16 H5          0.9700   -5.8460    0.3010 ha        1 MOL      0.131900
     17 H6          3.3340   -6.3650   -0.0930 ha        1 MOL      0.132400
     18 H7          4.2040   -2.1860   -0.5960 ha        1 MOL      0.133000
     19 H8          5.5200   -5.5030   -0.9680 hn        1 MOL      0.390900
     20 H9          5.9760   -3.9630   -0.2880 hn        1 MOL      0.390900
@<TRIPOS>BOND
     1    1    2 ar  
     2    1    3 ar  
     3    2    4 ar  
     4    3    8 ar  
     5    4    9 ar  
     6    5    6 ar  
     7    5    8 ar  
     8    6   10 ar  
     9    7    9 ar  
    10    7   10 ar  
    11    8    9 ar  
    12   10   11 1   
    13    1   12 1   
    14    2   13 1   
    15    3   14 1   
    16    4   15 1   
    17    5   16 1   
    18    6   17 1   
    19    7   18 1   
    20   11   19 1   
    21   11   20 1   
@<TRIPOS>SUBSTRUCTURE
     1 R0_         1 TEMP              0 ****  ****    0 ROOT
