@<TRIPOS>MOLECULE
ethane
    8     7     1     0     0
SMALL
No Charge or Current Charge


@<TRIPOS>ATOM
      1 C1          0.8150   -0.5380    0.4930 c3        1 MOL     -0.093800
      2 C2          2.1550   -0.0520   -0.0120 c3        1 MOL     -0.093800
      3 H1          0.0000    0.0010    0.0010 hc        1 MOL      0.031300
      4 H2          0.6930   -1.6070    0.2910 hc        1 MOL      0.031300
      5 H3          0.7300   -0.3800    1.5720 hc        1 MOL      0.031300
      6 H4          2.9700   -0.5910    0.4800 hc        1 MOL      0.031300
      7 H5          2.2770    1.0170    0.1910 hc        1 MOL      0.031300
      8 H6          2.2400   -0.2100   -1.0910 hc        1 MOL      0.031300
@<TRIPOS>BOND
     1    1    2 1   
     2    1    3 1   
     3    1    4 1   
     4    1    5 1   
     5    2    6 1   
     6    2    7 1   
     7    2    8 1   
@<TRIPOS>SUBSTRUCTURE
     1 MOL         1 TEMP              0 ****  ****    0 ROOT
