@<TRIPOS>MOLECULE
pent_1_yne
   13    12     1     0     0
SMALL
No Charge or Current Charge


@<TRIPOS>ATOM
      1 C1          3.8760   -3.3880    1.2010 c1        1 MOL     -0.162900
      2 C2          2.9020   -2.8460    0.7550 c1        1 MOL     -0.130400
      3 C3          0.7830   -0.0540   -0.7630 c3        1 MOL     -0.092100
      4 C4          1.7080   -2.1860    0.2090 c3        1 MOL     -0.009900
      5 C5          2.0200   -0.7560   -0.2270 c3        1 MOL     -0.074700
      6 H1          4.7400   -3.8690    1.5970 ha        1 MOL      0.162900
      7 H2          0.0000    0.0000    0.0000 hc        1 MOL      0.033600
      8 H3          1.0300    0.9680   -1.0690 hc        1 MOL      0.033600
      9 H4          0.3790   -0.5810   -1.6340 hc        1 MOL      0.033600
     10 H5          1.3310   -2.7610   -0.6440 hc        1 MOL      0.057300
     11 H6          0.9160   -2.1790    0.9670 hc        1 MOL      0.057300
     12 H7          2.7960   -0.7590   -1.0020 hc        1 MOL      0.045700
     13 H8          2.4210   -0.1830    0.6190 hc        1 MOL      0.045700
@<TRIPOS>BOND
     1    1    2 3   
     2    2    4 1   
     3    3    5 1   
     4    4    5 1   
     5    1    6 1   
     6    3    7 1   
     7    3    8 1   
     8    3    9 1   
     9    4   10 1   
    10    4   11 1   
    11    5   12 1   
    12    5   13 1   
@<TRIPOS>SUBSTRUCTURE
     1 R0_         1 TEMP              0 ****  ****    0 ROOT
