@<TRIPOS>MOLECULE
1,2,3,4-tetrachloro-5-phenyl-benzene
   22    23     1     0     0
SMALL
No Charge or Current Charge


@<TRIPOS>ATOM
      1 C1          1.8850   -1.0360   -0.1120 ca        1 MOL     -0.119500
      2 C2          0.8070   -0.4630    0.5610 ca        1 MOL     -0.130800
      3 C3          2.9210   -1.6310    0.6080 ca        1 MOL     -0.130400
      4 C4          0.7640   -0.4840    1.9550 ca        1 MOL     -0.104600
      5 C5          2.8780   -1.6520    2.0020 ca        1 MOL     -0.104400
      6 C6          1.1390   -2.1910    4.7350 ca        1 MOL     -0.101300
      7 C7          1.8000   -1.0790    2.6760 cp        1 MOL     -0.059700
      8 C8          1.7550   -1.1010    4.1220 cp        1 MOL     -0.016000
      9 C9          1.0680   -2.2600    6.1270 ca        1 MOL      0.020300
     10 C10         2.3010   -0.0790    4.8990 ca        1 MOL      0.032600
     11 C11         1.6140   -1.2390    6.9040 ca        1 MOL      0.022200
     12 C12         2.2300   -0.1480    6.2910 ca        1 MOL      0.019400
     13 Cl1         0.2870   -3.6440    6.8140 cl        1 MOL     -0.055600
     14 Cl2         3.0660    1.2730    4.1120 cl        1 MOL     -0.045300
     15 Cl3         1.5160   -1.3380    8.6400 cl        1 MOL     -0.038700
     16 Cl4         2.9130    1.1280    7.2600 cl        1 MOL     -0.039500
     17 H1          1.9170   -1.0210   -1.1980 ha        1 MOL      0.133600
     18 H2         -0.0010   -0.0020    0.0000 ha        1 MOL      0.135700
     19 H3          3.7600   -2.0790    0.0840 ha        1 MOL      0.136500
     20 H4         -0.0840   -0.0330    2.4660 ha        1 MOL      0.140300
     21 H5          3.6930   -2.1200    2.5500 ha        1 MOL      0.139900
     22 H6          0.7130   -2.9880    4.1280 ha        1 MOL      0.165300
@<TRIPOS>BOND
     1    1    2 ar  
     2    1    3 ar  
     3    2    4 ar  
     4    3    5 ar  
     5    4    7 ar  
     6    5    7 ar  
     7    6    8 ar  
     8    6    9 ar  
     9    7    8 1   
    10    8   10 ar  
    11    9   11 ar  
    12    9   13 1   
    13   10   12 ar  
    14   10   14 1   
    15   11   12 ar  
    16   11   15 1   
    17   12   16 1   
    18    1   17 1   
    19    2   18 1   
    20    3   19 1   
    21    4   20 1   
    22    5   21 1   
    23    6   22 1   
@<TRIPOS>SUBSTRUCTURE
     1 MOL         1 TEMP              0 ****  ****    0 ROOT
