@<TRIPOS>MOLECULE
methyl_formate
    8     7     1     0     0
SMALL
No Charge or Current Charge


@<TRIPOS>ATOM
      1 C1          1.5120   -0.9360   -1.9770 c         1 MOL      0.622300
      2 C2          0.3500   -1.0340    0.0710 c3        1 MOL      0.121300
      3 O1          0.5330   -0.5920   -2.6210 o         1 MOL     -0.510100
      4 O2          1.5790   -1.1920   -0.6450 os        1 MOL     -0.438300
      5 H1          2.5110   -1.0900   -2.4120 h5        1 MOL      0.060300
      6 H2          0.4540   -1.4600    1.0730 h1        1 MOL      0.048100
      7 H3         -0.4550   -1.5390   -0.4690 h1        1 MOL      0.048100
      8 H4          0.1200    0.0310    0.1520 h1        1 MOL      0.048100
@<TRIPOS>BOND
     1    1    3 2   
     2    1    4 1   
     3    2    4 1   
     4    1    5 1   
     5    2    6 1   
     6    2    7 1   
     7    2    8 1   
@<TRIPOS>SUBSTRUCTURE
     1 R0_         1 TEMP              0 ****  ****    0 ROOT
