@<TRIPOS>MOLECULE
methyl_octanoate
   29    28     1     0     0
SMALL
No Charge or Current Charge


@<TRIPOS>ATOM
      1 C1          3.3840   -8.3150   -1.2420 c         1 MOL      0.628800
      2 C2          0.6180    0.1200   -0.7580 c3        1 MOL     -0.089600
      3 C3          4.2190  -10.5120   -0.9720 c3        1 MOL      0.127100
      4 C4          3.0540   -7.0610   -0.4620 c3        1 MOL     -0.126400
      5 C5          0.9420   -1.1340   -1.5540 c3        1 MOL     -0.078100
      6 C6          2.5620   -5.9150   -1.3450 c3        1 MOL     -0.074200
      7 C7          1.4910   -2.2420   -0.6550 c3        1 MOL     -0.076800
      8 C8          2.3010   -4.6320   -0.5490 c3        1 MOL     -0.079900
      9 C9          1.7830   -3.5130   -1.4540 c3        1 MOL     -0.075900
     10 O1          3.2870   -8.4370   -2.4550 o         1 MOL     -0.537300
     11 O2          3.8350   -9.2700   -0.3750 os        1 MOL     -0.443000
     12 H1          1.5130    0.5130   -0.2650 hc        1 MOL      0.031700
     13 H2         -0.1360   -0.0850    0.0090 hc        1 MOL      0.031700
     14 H3          0.2260    0.8980   -1.4200 hc        1 MOL      0.031700
     15 H4          4.5200  -11.2150   -0.1920 h1        1 MOL      0.049500
     16 H5          5.0470  -10.3440   -1.6650 h1        1 MOL      0.049500
     17 H6          3.3660  -10.9220   -1.5190 h1        1 MOL      0.049500
     18 H7          3.9710   -6.7500    0.0520 hc        1 MOL      0.076500
     19 H8          2.2960   -7.2960    0.2930 hc        1 MOL      0.076500
     20 H9          0.0350   -1.4820   -2.0620 hc        1 MOL      0.037500
     21 H10         1.6740   -0.8880   -2.3310 hc        1 MOL      0.037500
     22 H11         1.6520   -6.2120   -1.8800 hc        1 MOL      0.053900
     23 H12         3.3260   -5.7100   -2.1060 hc        1 MOL      0.053900
     24 H13         2.4090   -1.8960   -0.1650 hc        1 MOL      0.039600
     25 H14         0.7660   -2.4650    0.1370 hc        1 MOL      0.039600
     26 H15         3.2290   -4.3090   -0.0620 hc        1 MOL      0.044000
     27 H16         1.5710   -4.8240    0.2460 hc        1 MOL      0.044000
     28 H17         2.5260   -3.2960   -2.2310 hc        1 MOL      0.039300
     29 H18         0.8700   -3.8450   -1.9630 hc        1 MOL      0.039300
@<TRIPOS>BOND
     1    1    4 1   
     2    1   10 2   
     3    1   11 1   
     4    2    5 1   
     5    3   11 1   
     6    4    6 1   
     7    5    7 1   
     8    6    8 1   
     9    7    9 1   
    10    8    9 1   
    11    2   12 1   
    12    2   13 1   
    13    2   14 1   
    14    3   15 1   
    15    3   16 1   
    16    3   17 1   
    17    4   18 1   
    18    4   19 1   
    19    5   20 1   
    20    5   21 1   
    21    6   22 1   
    22    6   23 1   
    23    7   24 1   
    24    7   25 1   
    25    8   26 1   
    26    8   27 1   
    27    9   28 1   
    28    9   29 1   
@<TRIPOS>SUBSTRUCTURE
     1 R0_         1 TEMP              0 ****  ****    0 ROOT
