@<TRIPOS>MOLECULE
CUP08032_AM1BCC_v1_0
   24    24     1     0     0
SMALL
No Charge or Current Charge


@<TRIPOS>ATOM
      1 C1          7.9880   -0.8590   -2.3970 ca        1 MOL     -0.153100
      2 C2          7.6610    0.4900   -2.2890 ca        1 MOL     -0.108500
      3 C3          7.0970   -1.8250   -1.9360 ca        1 MOL     -0.108500
      4 C4          6.4410    0.8700   -1.7230 ca        1 MOL     -0.159700
      5 C5          5.8760   -1.4450   -1.3690 ca        1 MOL     -0.159700
      6 C6          5.5340   -0.0950   -1.2660 ca        1 MOL      0.064300
      7 C7          3.2100   -0.3760   -0.3910 c         1 MOL      0.755300
      8 C8          0.9900   -0.3530    0.5900 c3        1 MOL      0.072100
      9 C9          2.5790    1.3860    1.2900 c3        1 MOL      0.072100
     10 N1          4.3320    0.3650   -0.6920 n         1 MOL     -0.458500
     11 N2          2.2480    0.3310    0.3400 n         1 MOL     -0.461100
     12 O1          3.0240   -1.5380   -0.7430 o         1 MOL     -0.619600
     13 H1          8.9350   -1.1580   -2.8370 ha        1 MOL      0.132200
     14 H2          8.3540    1.2470   -2.6460 ha        1 MOL      0.132300
     15 H3          7.3480   -2.8800   -2.0130 ha        1 MOL      0.132300
     16 H4          6.2100    1.9290   -1.6500 ha        1 MOL      0.148200
     17 H5          5.2130   -2.2260   -1.0090 ha        1 MOL      0.148200
     18 H6          1.0980   -0.9840    1.4770 h1        1 MOL      0.043700
     19 H7          0.7090   -0.9810   -0.2620 h1        1 MOL      0.043700
     20 H8          0.2000    0.3860    0.7530 h1        1 MOL      0.043700
     21 H9          1.7790    2.1320    1.2820 h1        1 MOL      0.043700
     22 H10         3.5260    1.8810    1.0720 h1        1 MOL      0.043700
     23 H11         2.6540    0.9410    2.2870 h1        1 MOL      0.043700
     24 H12         4.1810    1.3610   -0.7220 hn        1 MOL      0.309100
@<TRIPOS>BOND
     1    1    2 ar  
     2    1    3 ar  
     3    2    4 ar  
     4    3    5 ar  
     5    4    6 ar  
     6    5    6 ar  
     7    6   10 1   
     8    7   10 1   
     9    7   11 1   
    10    7   12 2   
    11    8   11 1   
    12    9   11 1   
    13    1   13 1   
    14    2   14 1   
    15    3   15 1   
    16    4   16 1   
    17    5   17 1   
    18    8   18 1   
    19    8   19 1   
    20    8   20 1   
    21    9   21 1   
    22    9   22 1   
    23    9   23 1   
    24   10   24 1   
@<TRIPOS>SUBSTRUCTURE
     1 R0_         1 TEMP              0 ****  ****    0 ROOT
