@<TRIPOS>MOLECULE
methyl_cyclopropanecarboxylate
   15    15     1     0     0
SMALL
No Charge or Current Charge


@<TRIPOS>ATOM
      1 C1         -1.5830    0.1980    0.8840 c         1 MOL      0.657300
      2 C2          0.4280    1.7840    0.8220 cx        1 MOL     -0.104300
      3 C3          0.8600    0.5020    0.1720 cx        1 MOL     -0.104300
      4 C4         -0.5660    0.9400    0.0950 cx        1 MOL     -0.190400
      5 C5         -3.6990    0.3440    1.9200 c3        1 MOL      0.128200
      6 O1         -1.4130   -0.9670    1.2140 o         1 MOL     -0.538000
      7 O2         -2.6640    0.9770    1.1610 os        1 MOL     -0.436100
      8 H1          0.3660    1.8080    1.9030 hc        1 MOL      0.081700
      9 H2          0.7610    2.7120    0.3730 hc        1 MOL      0.081700
     10 H3          1.4820    0.5710   -0.7120 hc        1 MOL      0.081700
     11 H4          1.0900   -0.3360    0.8180 hc        1 MOL      0.081700
     12 H5         -0.9280    1.2990   -0.8560 hc        1 MOL      0.111100
     13 H6         -4.6720    0.5970    1.4930 h1        1 MOL      0.049900
     14 H7         -3.6470    0.6790    2.9590 h1        1 MOL      0.049900
     15 H8         -3.5560   -0.7390    1.8810 h1        1 MOL      0.049900
@<TRIPOS>BOND
     1    1    4 1   
     2    1    6 2   
     3    1    7 1   
     4    2    3 1   
     5    2    4 1   
     6    3    4 1   
     7    5    7 1   
     8    2    8 1   
     9    2    9 1   
    10    3   10 1   
    11    3   11 1   
    12    4   12 1   
    13    5   13 1   
    14    5   14 1   
    15    5   15 1   
@<TRIPOS>SUBSTRUCTURE
     1 R0_         1 TEMP              0 ****  ****    0 ROOT
