@<TRIPOS>MOLECULE
n_octylamine
   28    27     1     0     0
SMALL
No Charge or Current Charge


@<TRIPOS>ATOM
      1 C1         -3.5680   -0.5600   -0.1100 c3        1 MOL     -0.089600
      2 C2         -2.2990    0.2700    0.0100 c3        1 MOL     -0.077500
      3 C3         -2.5100    1.7550   -0.2980 c3        1 MOL     -0.076400
      4 C4         -1.2340    2.5880   -0.1500 c3        1 MOL     -0.076700
      5 C5         -1.4280    4.0630   -0.5170 c3        1 MOL     -0.076800
      6 C6         -0.1610    4.9040   -0.3450 c3        1 MOL     -0.075200
      7 C7         -0.4040    6.3610   -0.7460 c3        1 MOL     -0.078900
      8 C8          0.8520    7.2070   -0.5420 c3        1 MOL      0.160300
      9 N1          0.5970    8.5920   -0.9210 n3        1 MOL     -0.916500
     10 H1         -4.0240   -0.4400   -1.0970 hc        1 MOL      0.031400
     11 H2         -4.3040   -0.2780    0.6490 hc        1 MOL      0.031400
     12 H3         -3.3370   -1.6210    0.0310 hc        1 MOL      0.031400
     13 H4         -1.8800    0.1530    1.0160 hc        1 MOL      0.036900
     14 H5         -1.5550   -0.1280   -0.6910 hc        1 MOL      0.036900
     15 H6         -2.8800    1.8420   -1.3270 hc        1 MOL      0.037900
     16 H7         -3.2960    2.1470    0.3560 hc        1 MOL      0.037900
     17 H8         -0.8560    2.5210    0.8760 hc        1 MOL      0.038700
     18 H9         -0.4570    2.1740   -0.8040 hc        1 MOL      0.038700
     19 H10        -1.7540    4.1150   -1.5630 hc        1 MOL      0.038700
     20 H11        -2.2400    4.4880    0.0860 hc        1 MOL      0.038700
     21 H12         0.1720    4.8710    0.6980 hc        1 MOL      0.040700
     22 H13         0.6450    4.4840   -0.9590 hc        1 MOL      0.040700
     23 H14        -0.7120    6.4040   -1.7990 hc        1 MOL      0.042900
     24 H15        -1.2300    6.7700   -0.1510 hc        1 MOL      0.042900
     25 H16         1.6730    6.8160   -1.1510 h1        1 MOL      0.023200
     26 H17         1.1670    7.1700    0.5070 h1        1 MOL      0.023200
     27 H18         0.9820    9.2080   -0.2090 hn        1 MOL      0.347400
     28 H19        -0.4070    8.7540   -0.9310 hn        1 MOL      0.347400
@<TRIPOS>BOND
     1    1    2 1   
     2    2    3 1   
     3    3    4 1   
     4    4    5 1   
     5    5    6 1   
     6    6    7 1   
     7    7    8 1   
     8    8    9 1   
     9    1   10 1   
    10    1   11 1   
    11    1   12 1   
    12    2   13 1   
    13    2   14 1   
    14    3   15 1   
    15    3   16 1   
    16    4   17 1   
    17    4   18 1   
    18    5   19 1   
    19    5   20 1   
    20    6   21 1   
    21    6   22 1   
    22    7   23 1   
    23    7   24 1   
    24    8   25 1   
    25    8   26 1   
    26    9   27 1   
    27    9   28 1   
@<TRIPOS>SUBSTRUCTURE
     1 R0_         1 TEMP              0 ****  ****    0 ROOT
