@<TRIPOS>MOLECULE
trimethyl
   17    16     1     0     0
SMALL
No Charge or Current Charge


@<TRIPOS>ATOM
      1 C1          1.0020   -0.2850   -0.3280 c3        1 MOL      0.151800
      2 C2          1.1530   -0.7790   -4.7430 c3        1 MOL      0.152500
      3 C3          3.3410    1.8570   -2.0450 c3        1 MOL      0.148000
      4 O1          2.8150   -2.0290   -2.3080 o         1 MOL     -0.799900
      5 O2          1.0800   -0.1390   -1.7360 os        1 MOL     -0.571800
      6 O3          2.1850   -0.1340   -4.0170 os        1 MOL     -0.580300
      7 O4          3.5620    0.4610   -1.9410 os        1 MOL     -0.546200
      8 P1          2.4480   -0.5830   -2.4830 p5        1 MOL      1.597500
      9 H1          0.0240    0.0560    0.0210 h1        1 MOL      0.063300
     10 H2          1.7940    0.3010    0.1450 h1        1 MOL      0.033700
     11 H3          1.1300   -1.3400   -0.0730 h1        1 MOL      0.048400
     12 H4          1.1040   -0.3670   -5.7530 h1        1 MOL      0.047300
     13 H5          0.1990   -0.6320   -4.2310 h1        1 MOL      0.043000
     14 H6          1.3730   -1.8480   -4.7980 h1        1 MOL      0.058800
     15 H7          4.1970    2.3950   -1.6290 h1        1 MOL      0.066500
     16 H8          2.4310    2.1240   -1.5020 h1        1 MOL      0.041700
     17 H9          3.2240    2.1210   -3.0990 h1        1 MOL      0.045600
@<TRIPOS>BOND
     1    1    5 1   
     2    2    6 1   
     3    3    7 1   
     4    4    8 2   
     5    5    8 1   
     6    6    8 1   
     7    7    8 1   
     8    1    9 1   
     9    1   10 1   
    10    1   11 1   
    11    2   12 1   
    12    2   13 1   
    13    2   14 1   
    14    3   15 1   
    15    3   16 1   
    16    3   17 1   
@<TRIPOS>SUBSTRUCTURE
     1 TRI         1 TEMP              0 ****  ****    0 ROOT
