@<TRIPOS>MOLECULE
2_methoxyaniline
   18    18     1     0     0
SMALL
No Charge or Current Charge


@<TRIPOS>ATOM
      1 C1          1.8850   -1.0380   -0.1090 ca        1 MOL     -0.124600
      2 C2          0.8180   -0.4410    0.5630 ca        1 MOL     -0.139500
      3 C3          2.9350   -1.6040    0.6140 ca        1 MOL     -0.165300
      4 C4          0.8010   -0.4100    1.9570 ca        1 MOL     -0.167400
      5 C5          2.9180   -1.5730    2.0080 ca        1 MOL      0.120000
      6 C6          1.8510   -0.9770    2.6800 ca        1 MOL      0.064100
      7 C7          1.1870   -2.0310    4.7060 c3        1 MOL      0.123200
      8 N1          3.9880   -2.1500    2.7270 nh        1 MOL     -0.808400
      9 O1          1.8150   -0.9360    4.0420 os        1 MOL     -0.342400
     10 H1          1.8980   -1.0610   -1.1950 ha        1 MOL      0.131100
     11 H2          0.0000   -0.0000   -0.0000 ha        1 MOL      0.131500
     12 H3          3.7610   -2.0660    0.0800 ha        1 MOL      0.134800
     13 H4         -0.0340    0.0560    2.4740 ha        1 MOL      0.134800
     14 H5          1.9020   -2.8490    4.8190 h1        1 MOL      0.041900
     15 H6          0.3240   -2.3640    4.1240 h1        1 MOL      0.041900
     16 H7          0.8530   -1.7030    5.6930 h1        1 MOL      0.041900
     17 H8          4.5480   -2.8510    2.2870 hn        1 MOL      0.391300
     18 H9          4.1070   -1.9160    3.6910 hn        1 MOL      0.391300
@<TRIPOS>BOND
     1    1    2 ar  
     2    1    3 ar  
     3    2    4 ar  
     4    3    5 ar  
     5    4    6 ar  
     6    5    6 ar  
     7    5    8 1   
     8    6    9 1   
     9    7    9 1   
    10    1   10 1   
    11    2   11 1   
    12    3   12 1   
    13    4   13 1   
    14    7   14 1   
    15    7   15 1   
    16    7   16 1   
    17    8   17 1   
    18    8   18 1   
@<TRIPOS>SUBSTRUCTURE
     1 R0_         1 TEMP              0 ****  ****    0 ROOT
