@<TRIPOS>MOLECULE
2_chloro_111_trimethoxyethane
   20    19     1     0     0
SMALL
No Charge or Current Charge


@<TRIPOS>ATOM
      1 C1          1.5870   -0.4910    1.8110 c3        1 MOL      0.131300
      2 C2         -0.1010    0.0570    4.6870 c3        1 MOL      0.131300
      3 C3         -2.2870   -2.4590    3.9520 c3        1 MOL      0.131300
      4 C4          0.2820   -2.9820    2.6040 c3        1 MOL      0.006600
      5 C5         -0.2680   -1.5760    2.9330 c3        1 MOL      0.522000
      6 O1          0.1780   -0.6340    1.9330 os        1 MOL     -0.439700
      7 O2          0.2990   -1.2240    4.2160 os        1 MOL     -0.439700
      8 O3         -1.7100   -1.5930    2.9860 os        1 MOL     -0.439700
      9 Cl1        -0.2430   -3.5550    0.9950 cl        1 MOL     -0.144300
     10 H1          1.8590    0.5600    1.9380 h1        1 MOL      0.042200
     11 H2          1.9060   -0.8450    0.8280 h1        1 MOL      0.042200
     12 H3          2.0730   -1.0870    2.5860 h1        1 MOL      0.042200
     13 H4          0.5540    0.8230    4.2650 h1        1 MOL      0.042200
     14 H5         -0.0480    0.0780    5.7780 h1        1 MOL      0.042200
     15 H6         -1.1300    0.2460    4.3710 h1        1 MOL      0.042200
     16 H7         -1.4960   -2.9170    4.5520 h1        1 MOL      0.042200
     17 H8         -2.8690   -3.2340    3.4470 h1        1 MOL      0.042200
     18 H9         -2.9450   -1.8790    4.6040 h1        1 MOL      0.042200
     19 H10        -0.0360   -3.7260    3.3400 h1        1 MOL      0.080300
     20 H11         1.3760   -2.9840    2.5810 h1        1 MOL      0.080300
@<TRIPOS>BOND
     1    1    6 1   
     2    2    7 1   
     3    3    8 1   
     4    4    5 1   
     5    4    9 1   
     6    5    6 1   
     7    5    7 1   
     8    5    8 1   
     9    1   10 1   
    10    1   11 1   
    11    1   12 1   
    12    2   13 1   
    13    2   14 1   
    14    2   15 1   
    15    3   16 1   
    16    3   17 1   
    17    3   18 1   
    18    4   19 1   
    19    4   20 1   
@<TRIPOS>SUBSTRUCTURE
     1 R0_         1 TEMP              0 ****  ****    0 ROOT
