@<TRIPOS>MOLECULE
n_hexane
   20    19     1     0     0
SMALL
No Charge or Current Charge


@<TRIPOS>ATOM
      1 C1         -0.7260   -0.7470   -0.3390 c3        1 MOL     -0.089500
      2 C2         -3.1250   -2.6790   -5.9030 c3        1 MOL     -0.089500
      3 C3         -0.8330   -0.7250   -1.8560 c3        1 MOL     -0.077700
      4 C4         -3.0190   -2.7000   -4.3860 c3        1 MOL     -0.077700
      5 C5         -1.8740   -1.7250   -2.3580 c3        1 MOL     -0.075900
      6 C6         -1.9540   -1.7250   -3.8850 c3        1 MOL     -0.075900
      7 H1         -1.6820   -0.4860    0.1250 hc        1 MOL      0.031300
      8 H2          0.0240   -0.0240   -0.0020 hc        1 MOL      0.031300
      9 H3         -0.4280   -1.7370    0.0190 hc        1 MOL      0.031300
     10 H4         -3.3970   -1.6810   -6.2630 hc        1 MOL      0.031300
     11 H5         -2.1760   -2.9650   -6.3670 hc        1 MOL      0.031300
     12 H6         -3.8930   -3.3820   -6.2390 hc        1 MOL      0.031300
     13 H7          0.1470   -0.9590   -2.2880 hc        1 MOL      0.037200
     14 H8         -1.0990    0.2860   -2.1830 hc        1 MOL      0.037200
     15 H9         -2.7760   -3.7180   -4.0580 hc        1 MOL      0.037200
     16 H10        -3.9930   -2.4430   -3.9540 hc        1 MOL      0.037200
     17 H11        -2.8560   -1.4750   -1.9380 hc        1 MOL      0.037500
     18 H12        -1.6180   -2.7310   -2.0040 hc        1 MOL      0.037500
     19 H13        -0.9780   -1.9990   -4.3050 hc        1 MOL      0.037500
     20 H14        -2.1860   -0.7140   -4.2410 hc        1 MOL      0.037500
@<TRIPOS>BOND
     1    1    3 1   
     2    2    4 1   
     3    3    5 1   
     4    4    6 1   
     5    5    6 1   
     6    1    7 1   
     7    1    8 1   
     8    1    9 1   
     9    2   10 1   
    10    2   11 1   
    11    2   12 1   
    12    3   13 1   
    13    3   14 1   
    14    4   15 1   
    15    4   16 1   
    16    5   17 1   
    17    5   18 1   
    18    6   19 1   
    19    6   20 1   
@<TRIPOS>SUBSTRUCTURE
     1 R0_         1 TEMP              0 ****  ****    0 ROOT
