@<TRIPOS>MOLECULE
SAMPL4_015
   27    27     1     0     0
SMALL
bcc


@<TRIPOS>ATOM
      1 C1          1.0940    0.6060   -0.2990 ce        1 MOL     -0.261200
      2 C2          0.4520    0.1760   -1.3970 c2        1 MOL     -0.043400
      3 C3          0.5050    0.4140    1.0510 c         1 MOL      0.569300
      4 C4         -0.8540   -0.5730   -1.3420 c3        1 MOL     -0.061200
      5 C5         -1.1360   -1.1690    0.0360 c3        1 MOL     -0.070400
      6 C6         -0.9130   -0.1390    1.1420 c3        1 MOL     -0.155700
      7 C7          1.0070    0.4220   -2.7700 c3        1 MOL     -0.072900
      8 C8         -2.6760   -0.8230    2.7940 c3        1 MOL     -0.090100
      9 C9         -0.5530   -2.1500    2.6020 c3        1 MOL     -0.090100
     10 C10        -1.1760   -0.7580    2.5120 c3        1 MOL     -0.061700
     11 O1          1.1470    0.7650    2.0390 o         1 MOL     -0.536100
     12 H1          2.0420    1.1290   -0.3550 ha        1 MOL      0.148000
     13 H2         -1.6640    0.1090   -1.6270 hc        1 MOL      0.057200
     14 H3         -0.8470   -1.3900   -2.0740 hc        1 MOL      0.057200
     15 H4         -2.1650   -1.5450    0.0650 hc        1 MOL      0.052700
     16 H5         -0.4770   -2.0340    0.1930 hc        1 MOL      0.052700
     17 H6         -1.5980    0.7080    1.0040 hc        1 MOL      0.071700
     18 H7          1.6530   -0.4050   -3.0530 hc        1 MOL      0.050700
     19 H8          1.5780    1.3480   -2.7690 hc        1 MOL      0.050700
     20 H9          0.1890    0.5080   -3.4810 hc        1 MOL      0.050700
     21 H10        -3.1930   -1.4490    2.0580 hc        1 MOL      0.035033
     22 H11        -3.1210    0.1770    2.7600 hc        1 MOL      0.035033
     23 H12        -2.8670   -1.2410    3.7880 hc        1 MOL      0.035033
     24 H13        -0.9850   -2.8280    1.8580 hc        1 MOL      0.035033
     25 H14        -0.7150   -2.5860    3.5930 hc        1 MOL      0.035033
     26 H15         0.5280   -2.1030    2.4300 hc        1 MOL      0.035033
     27 H16        -0.7100   -0.1220    3.2750 hc        1 MOL      0.071700
@<TRIPOS>BOND
     1    1    2 2   
     2    1    3 1   
     3    2    4 1   
     4    2    7 1   
     5    3    6 1   
     6    3   11 2   
     7    4    5 1   
     8    5    6 1   
     9    6   10 1   
    10    8   10 1   
    11    9   10 1   
    12    1   12 1   
    13    4   13 1   
    14    4   14 1   
    15    5   15 1   
    16    5   16 1   
    17    6   17 1   
    18    7   18 1   
    19    7   19 1   
    20    7   20 1   
    21    8   21 1   
    22    8   22 1   
    23    8   23 1   
    24    9   24 1   
    25    9   25 1   
    26    9   26 1   
    27   10   27 1   
@<TRIPOS>SUBSTRUCTURE
     1 TMP         1 TEMP              0 ****  ****    0 ROOT
