@<TRIPOS>MOLECULE
acetonitrile
    6     5     1     0     0
SMALL
No Charge or Current Charge


@<TRIPOS>ATOM
      1 C1         -0.2060    1.4710    1.5040 c1        1 MOL      0.212600
      2 C2          0.4480    0.2840    0.9570 c3        1 MOL     -0.048500
      3 N1         -0.7250    2.4140    1.9390 n1        1 MOL     -0.374300
      4 H1          1.5130    0.4680    0.7920 hc        1 MOL      0.070000
      5 H2          0.0000    0.0000    0.0000 hc        1 MOL      0.070000
      6 H3          0.3510   -0.5640    1.6420 hc        1 MOL      0.070000
@<TRIPOS>BOND
     1    1    2 1   
     2    1    3 3   
     3    2    4 1   
     4    2    5 1   
     5    2    6 1   
@<TRIPOS>SUBSTRUCTURE
     1 R0_         1 TEMP              0 ****  ****    0 ROOT
