@<TRIPOS>MOLECULE
cyclopentane
   15    15     1     0     0
SMALL
No Charge or Current Charge


@<TRIPOS>ATOM
      1 C1         -0.1640   -1.6620    2.5630 c3        1 MOL     -0.080300
      2 C2          1.1390   -0.9520    2.8870 c3        1 MOL     -0.080300
      3 C3         -0.9740   -0.5880    1.8550 c3        1 MOL     -0.080300
      4 C4          1.4200   -0.1420    1.6310 c3        1 MOL     -0.080300
      5 C5          0.0480    0.2310    1.0700 c3        1 MOL     -0.080300
      6 H1          0.0200   -2.5050    1.8880 hc        1 MOL      0.040200
      7 H2         -0.6670   -2.0410    3.4570 hc        1 MOL      0.040200
      8 H3          1.0030   -0.2830    3.7450 hc        1 MOL      0.040200
      9 H4          1.9480   -1.6500    3.1210 hc        1 MOL      0.040200
     10 H5         -1.7490   -1.0120    1.2090 hc        1 MOL      0.040200
     11 H6         -1.4710    0.0530    2.5930 hc        1 MOL      0.040200
     12 H7          2.0340    0.7400    1.8390 hc        1 MOL      0.040200
     13 H8          1.9600   -0.7570    0.9010 hc        1 MOL      0.040200
     14 H9          0.0000    0.0000   -0.0000 hc        1 MOL      0.040200
     15 H10        -0.1500    1.3030    1.1810 hc        1 MOL      0.040200
@<TRIPOS>BOND
     1    1    2 1   
     2    1    3 1   
     3    2    4 1   
     4    3    5 1   
     5    4    5 1   
     6    1    6 1   
     7    1    7 1   
     8    2    8 1   
     9    2    9 1   
    10    3   10 1   
    11    3   11 1   
    12    4   12 1   
    13    4   13 1   
    14    5   14 1   
    15    5   15 1   
@<TRIPOS>SUBSTRUCTURE
     1 R0_         1 TEMP              0 ****  ****    0 ROOT
