@<TRIPOS>MOLECULE
E_but_2_enal
   11    10     1     0     0
SMALL
No Charge or Current Charge


@<TRIPOS>ATOM
      1 C1         -1.2230   -1.5180   -0.8030 ce        1 MOL     -0.290600
      2 C2         -0.9450   -0.2510   -0.4750 c2        1 MOL     -0.078200
      3 C3         -0.2300   -2.5700   -0.5140 c         1 MOL      0.562200
      4 C4         -1.8800    0.8860   -0.7250 c3        1 MOL     -0.082600
      5 O1         -0.4330   -3.7460   -0.7910 o         1 MOL     -0.530200
      6 H1         -2.1530   -1.8080   -1.2780 ha        1 MOL      0.139400
      7 H2          0.0000    0.0000    0.0000 ha        1 MOL      0.126100
      8 H3          0.7050   -2.2410   -0.0310 h4        1 MOL     -0.007000
      9 H4         -1.4020    1.6260   -1.3750 hc        1 MOL      0.053700
     10 H5         -2.1350    1.3730    0.2220 hc        1 MOL      0.053700
     11 H6         -2.8100    0.5620   -1.2030 hc        1 MOL      0.053700
@<TRIPOS>BOND
     1    1    2 2   
     2    1    3 1   
     3    2    4 1   
     4    3    5 2   
     5    1    6 1   
     6    2    7 1   
     7    3    8 1   
     8    4    9 1   
     9    4   10 1   
    10    4   11 1   
@<TRIPOS>SUBSTRUCTURE
     1 R0_         1 TEMP              0 ****  ****    0 ROOT
