@<TRIPOS>MOLECULE
azetidine
   11    11     1     0     0
SMALL
No Charge or Current Charge


@<TRIPOS>ATOM
      1 C1          0.7940   -0.6100   -0.4450 cy        1 MOL     -0.098400
      2 C2          0.4850   -1.1020   -1.8660 cy        1 MOL      0.116100
      3 C3          1.9060    0.2050   -1.1210 cy        1 MOL      0.116100
      4 N1          1.1340    0.1260   -2.3860 n3        1 MOL     -0.775700
      5 H1         -0.0000   -0.0010    0.0010 hc        1 MOL      0.056800
      6 H2          1.1180   -1.3690    0.2710 hc        1 MOL      0.056800
      7 H3          1.0060   -2.0260   -2.1440 h1        1 MOL      0.047800
      8 H4         -0.5750   -1.2010   -2.1140 h1        1 MOL      0.047800
      9 H5          2.0530    1.2170   -0.7360 h1        1 MOL      0.047800
     10 H6          2.8740   -0.3070   -1.1650 h1        1 MOL      0.047800
     11 H7          1.7000   -0.0100   -3.2220 hn        1 MOL      0.337000
@<TRIPOS>BOND
     1    1    2 1   
     2    1    3 1   
     3    2    4 1   
     4    3    4 1   
     5    1    5 1   
     6    1    6 1   
     7    2    7 1   
     8    2    8 1   
     9    3    9 1   
    10    3   10 1   
    11    4   11 1   
@<TRIPOS>SUBSTRUCTURE
     1 R0_         1 TEMP              0 ****  ****    0 ROOT
