@<TRIPOS>MOLECULE
butyraldehyde
   13    12     1     0     0
SMALL
No Charge or Current Charge


@<TRIPOS>ATOM
      1 C1          2.7210    1.9250   -2.5420 c         1 MOL      0.560500
      2 C2         -0.0380   -0.3340   -1.0420 c3        1 MOL     -0.093200
      3 C3          2.0590    0.9330   -1.6170 c3        1 MOL     -0.198100
      4 C4          0.5950    0.6930   -1.9660 c3        1 MOL     -0.071800
      5 O1          2.1550    2.5140   -3.4580 o         1 MOL     -0.522700
      6 H1          3.7920    2.1030   -2.3430 h4        1 MOL     -0.009200
      7 H2          0.0000    0.0000   -0.0000 hc        1 MOL      0.036000
      8 H3         -1.0870   -0.4910   -1.3100 hc        1 MOL      0.036000
      9 H4          0.4790   -1.2970   -1.1130 hc        1 MOL      0.036000
     10 H5          2.1500    1.3220   -0.5970 hc        1 MOL      0.067500
     11 H6          2.6250   -0.0030   -1.6780 hc        1 MOL      0.067500
     12 H7          0.0350    1.6330   -1.9000 hc        1 MOL      0.045800
     13 H8          0.5090    0.3470   -3.0040 hc        1 MOL      0.045800
@<TRIPOS>BOND
     1    1    3 1   
     2    1    5 2   
     3    2    4 1   
     4    3    4 1   
     5    1    6 1   
     6    2    7 1   
     7    2    8 1   
     8    2    9 1   
     9    3   10 1   
    10    3   11 1   
    11    4   12 1   
    12    4   13 1   
@<TRIPOS>SUBSTRUCTURE
     1 R0_         1 TEMP              0 ****  ****    0 ROOT
