@<TRIPOS>MOLECULE
isopropyl_acetate
   17    16     1     0     0
SMALL
No Charge or Current Charge


@<TRIPOS>ATOM
      1 C1          0.9630    3.1040    2.2230 c         1 MOL      0.633800
      2 C2          1.0550    4.4990    1.6830 c3        1 MOL     -0.155000
      3 C3          1.0770    0.0500    0.1960 c3        1 MOL     -0.113300
      4 C4          2.8430    1.0380    1.6980 c3        1 MOL     -0.113300
      5 C5          1.3530    0.9190    1.4130 c3        1 MOL      0.154500
      6 O1          1.0160    2.8250    3.4140 o         1 MOL     -0.536200
      7 O2          0.8120    2.2180    1.1940 os        1 MOL     -0.444300
      8 H1          0.1360    4.7520    1.1500 hc        1 MOL      0.073200
      9 H2          1.9210    4.5830    1.0210 hc        1 MOL      0.073200
     10 H3          1.1820    5.2010    2.5120 hc        1 MOL      0.073200
     11 H4          1.4530   -0.9670    0.3400 hc        1 MOL      0.048700
     12 H5          0.0000    0.0000    0.0000 hc        1 MOL      0.048700
     13 H6          1.5400    0.4710   -0.7030 hc        1 MOL      0.048700
     14 H7          3.2880    0.0590    1.8990 hc        1 MOL      0.048700
     15 H8          3.0140    1.6860    2.5640 hc        1 MOL      0.048700
     16 H9          3.3700    1.4960    0.8530 hc        1 MOL      0.048700
     17 H10         0.8470    0.4960    2.2870 h1        1 MOL      0.062200
@<TRIPOS>BOND
     1    1    2 1   
     2    1    6 2   
     3    1    7 1   
     4    3    5 1   
     5    4    5 1   
     6    5    7 1   
     7    2    8 1   
     8    2    9 1   
     9    2   10 1   
    10    3   11 1   
    11    3   12 1   
    12    3   13 1   
    13    4   14 1   
    14    4   15 1   
    15    4   16 1   
    16    5   17 1   
@<TRIPOS>SUBSTRUCTURE
     1 R0_         1 TEMP              0 ****  ****    0 ROOT
