@<TRIPOS>MOLECULE
NN_dimethyl_p_nitrobenzamide
   24    24     1     0     0
SMALL
No Charge or Current Charge


@<TRIPOS>ATOM
      1 C1          0.8450   -0.3260    0.5970 ca        1 MOL     -0.105300
      2 C2          2.9580   -1.4950    0.6720 ca        1 MOL     -0.105300
      3 C3          0.8410   -0.2430    1.9890 ca        1 MOL     -0.076500
      4 C4          2.9540   -1.4110    2.0650 ca        1 MOL     -0.076500
      5 C5          1.9030   -0.9520   -0.0620 ca        1 MOL     -0.091200
      6 C6          1.8950   -0.7850    2.7230 ca        1 MOL     -0.157600
      7 C7          1.9070   -1.0380   -1.5130 c         1 MOL      0.663500
      8 C8          2.5650   -0.0240   -3.7090 c3        1 MOL      0.081800
      9 C9          3.1110    1.1630   -1.6140 c3        1 MOL      0.081800
     10 N1          1.8920   -0.6990    4.1400 no        1 MOL      0.309600
     11 N2          2.5070   -0.0030   -2.2550 n         1 MOL     -0.477500
     12 O1          1.3850   -2.0400   -2.0190 o         1 MOL     -0.582300
     13 O2          0.9310   -0.1300    4.7130 o         1 MOL     -0.200600
     14 O3          2.8500   -1.1940    4.7820 o         1 MOL     -0.200600
     15 H1          0.0180    0.1010    0.0340 ha        1 MOL      0.159900
     16 H2          3.7870   -1.9860    0.1690 ha        1 MOL      0.159900
     17 H3          0.0090    0.2470    2.4890 ha        1 MOL      0.171900
     18 H4          3.7830   -1.8370    2.6250 ha        1 MOL      0.171900
     19 H5          3.5920    0.1730   -4.0220 h1        1 MOL      0.045500
     20 H6          1.8970    0.7470   -4.1000 h1        1 MOL      0.045500
     21 H7          2.2460   -1.0080   -4.0600 h1        1 MOL      0.045500
     22 H8          2.3450    1.6820   -1.0350 h1        1 MOL      0.045500
     23 H9          3.5090    1.8230   -2.3890 h1        1 MOL      0.045500
     24 H10         3.9170    0.8270   -0.9580 h1        1 MOL      0.045500
@<TRIPOS>BOND
     1    1    3 ar  
     2    1    5 ar  
     3    2    4 ar  
     4    2    5 ar  
     5    3    6 ar  
     6    4    6 ar  
     7    5    7 1   
     8    6   10 1   
     9    7   11 1   
    10    7   12 2   
    11    8   11 1   
    12    9   11 1   
    13   10   13 1   
    14   10   14 1   
    15    1   15 1   
    16    2   16 1   
    17    3   17 1   
    18    4   18 1   
    19    8   19 1   
    20    8   20 1   
    21    8   21 1   
    22    9   22 1   
    23    9   23 1   
    24    9   24 1   
@<TRIPOS>SUBSTRUCTURE
     1 R0_         1 TEMP              0 ****  ****    0 ROOT
