@<TRIPOS>MOLECULE
1_nitropentane
   19    18     1     0     0
SMALL
No Charge or Current Charge


@<TRIPOS>ATOM
      1 C1          0.3790   -0.7860    0.7060 c3        1 MOL     -0.091800
      2 C2          1.5220   -0.2150    1.5300 c3        1 MOL     -0.078400
      3 C3          2.7000    0.1940    0.6450 c3        1 MOL     -0.079900
      4 C4          3.8610    0.7360    1.4790 c3        1 MOL     -0.089800
      5 C5          5.0100    1.1790    0.5900 c3        1 MOL     -0.074600
      6 N1          6.0590    1.7460    1.4530 no        1 MOL      0.228200
      7 O1          6.0250    2.9690    1.6780 o         1 MOL     -0.211100
      8 O2          6.9050    0.9630    1.9200 o         1 MOL     -0.211100
      9 H1         -0.4520   -1.0720    1.3590 hc        1 MOL      0.035900
     10 H2          0.0070   -0.0490   -0.0130 hc        1 MOL      0.035900
     11 H3          0.6980   -1.6750    0.1540 hc        1 MOL      0.035900
     12 H4          1.8480   -0.9650    2.2600 hc        1 MOL      0.041300
     13 H5          1.1610    0.6520    2.0940 hc        1 MOL      0.041300
     14 H6          2.3730    0.9580   -0.0710 hc        1 MOL      0.048200
     15 H7          3.0390   -0.6710    0.0610 hc        1 MOL      0.048200
     16 H8          4.2040   -0.0380    2.1780 hc        1 MOL      0.067300
     17 H9          3.5140    1.5790    2.0900 hc        1 MOL      0.067300
     18 H10         4.7210    1.9680   -0.1080 h1        1 MOL      0.093500
     19 H11         5.4680    0.3460    0.0500 h1        1 MOL      0.093500
@<TRIPOS>BOND
     1    1    2 1   
     2    2    3 1   
     3    3    4 1   
     4    4    5 1   
     5    5    6 1   
     6    6    7 1   
     7    6    8 1   
     8    1    9 1   
     9    1   10 1   
    10    1   11 1   
    11    2   12 1   
    12    2   13 1   
    13    3   14 1   
    14    3   15 1   
    15    4   16 1   
    16    4   17 1   
    17    5   18 1   
    18    5   19 1   
@<TRIPOS>SUBSTRUCTURE
     1 R0_         1 TEMP              0 ****  ****    0 ROOT
