@<TRIPOS>MOLECULE
acenaphthene
   22    24     1     0     0
SMALL
No Charge or Current Charge


@<TRIPOS>ATOM
      1 C1          5.8330   -0.4960    0.1920 ca        1 MOL     -0.122500
      2 C2          0.9670   -0.4610    0.1850 ca        1 MOL     -0.122500
      3 C3          4.6690    0.2400   -0.1040 ca        1 MOL     -0.119800
      4 C4          2.1420    0.2580   -0.1080 ca        1 MOL     -0.119800
      5 C5          5.7580   -1.7960    0.7190 ca        1 MOL     -0.121400
      6 C6          1.0220   -1.7620    0.7130 ca        1 MOL     -0.121400
      7 C7          3.4010   -0.3260    0.1270 ca        1 MOL     -0.021600
      8 C8          3.3910   -1.6200    0.6510 ca        1 MOL     -0.063200
      9 C9          4.5110   -2.3520    0.9460 ca        1 MOL     -0.061100
     10 C10         2.2600   -2.3360    0.9430 ca        1 MOL     -0.061100
     11 C11         4.1520   -3.7010    1.4930 c3        1 MOL     -0.040400
     12 C12         2.5990   -3.6900    1.4920 c3        1 MOL     -0.040400
     13 H1          6.8080   -0.0490    0.0090 ha        1 MOL      0.129000
     14 H2         -0.0000   -0.0000   -0.0000 ha        1 MOL      0.129000
     15 H3          4.7600    1.2440   -0.5110 ha        1 MOL      0.132400
     16 H4          2.0680    1.2630   -0.5150 ha        1 MOL      0.132400
     17 H5          6.6650   -2.3490    0.9420 ha        1 MOL      0.133600
     18 H6          0.1060   -2.3020    0.9330 ha        1 MOL      0.133600
     19 H7          4.5350   -4.5010    0.8510 hc        1 MOL      0.056300
     20 H8          4.5380   -3.8320    2.5090 hc        1 MOL      0.056300
     21 H9          2.2080   -3.8120    2.5080 hc        1 MOL      0.056300
     22 H10         2.2050   -4.4860    0.8520 hc        1 MOL      0.056300
@<TRIPOS>BOND
     1    1    3 ar  
     2    1    5 ar  
     3    2    4 ar  
     4    2    6 ar  
     5    3    7 ar  
     6    4    7 ar  
     7    5    9 ar  
     8    6   10 ar  
     9    7    8 ar  
    10    8    9 ar  
    11    8   10 ar  
    12    9   11 1   
    13   10   12 1   
    14   11   12 1   
    15    1   13 1   
    16    2   14 1   
    17    3   15 1   
    18    4   16 1   
    19    5   17 1   
    20    6   18 1   
    21   11   19 1   
    22   11   20 1   
    23   12   21 1   
    24   12   22 1   
@<TRIPOS>SUBSTRUCTURE
     1 R0_         1 TEMP              0 ****  ****    0 ROOT
