@<TRIPOS>MOLECULE
pyrrolidine
   14    14     1     0     0
SMALL
No Charge or Current Charge


@<TRIPOS>ATOM
      1 C1          0.7680   -0.7660   -0.1490 c3        1 MOL     -0.079900
      2 C2          1.0230   -1.5660    1.1230 c3        1 MOL     -0.079900
      3 C3          0.3390   -1.7920   -1.1830 c3        1 MOL      0.137800
      4 C4          0.7370   -3.0100    0.7470 c3        1 MOL      0.137800
      5 N1          0.9270   -3.0380   -0.7010 n3        1 MOL     -0.789700
      6 H1          0.0000   -0.0000   -0.0000 hc        1 MOL      0.046200
      7 H2          1.6900   -0.2610   -0.4610 hc        1 MOL      0.046200
      8 H3          2.0670   -1.4440    1.4340 hc        1 MOL      0.046200
      9 H4          0.3850   -1.2320    1.9470 hc        1 MOL      0.046200
     10 H5         -0.7540   -1.8740   -1.2130 h1        1 MOL      0.034400
     11 H6          0.6940   -1.5380   -2.1860 h1        1 MOL      0.034400
     12 H7          1.4060   -3.7080    1.2570 h1        1 MOL      0.034400
     13 H8         -0.2970   -3.2740    1.0000 h1        1 MOL      0.034400
     14 H9          0.4580   -3.8430   -1.1120 hn        1 MOL      0.351600
@<TRIPOS>BOND
     1    1    2 1   
     2    1    3 1   
     3    2    4 1   
     4    3    5 1   
     5    4    5 1   
     6    1    6 1   
     7    1    7 1   
     8    2    8 1   
     9    2    9 1   
    10    3   10 1   
    11    3   11 1   
    12    4   12 1   
    13    4   13 1   
    14    5   14 1   
@<TRIPOS>SUBSTRUCTURE
     1 R0_         1 TEMP              0 ****  ****    0 ROOT
