@<TRIPOS>MOLECULE
14_dimethyl_piperazine
   22    22     1     0     0
SMALL
No Charge or Current Charge


@<TRIPOS>ATOM
      1 C1          0.9730   -0.4230   -0.2780 c3        1 MOL      0.146300
      2 C2          0.7470   -1.4820   -1.3610 c3        1 MOL      0.146300
      3 C3          2.8770   -1.6610    0.5350 c3        1 MOL      0.146300
      4 C4          2.6490   -2.7210   -0.5480 c3        1 MOL      0.146300
      5 C5          1.8320    0.0010    1.9360 c3        1 MOL      0.148000
      6 C6          1.7940   -3.1420   -2.7630 c3        1 MOL      0.148000
      7 N1          1.6130   -1.0120    0.9050 n3        1 MOL     -0.709400
      8 N2          2.0110   -2.1300   -1.7310 n3        1 MOL     -0.709400
      9 H1          1.5830    0.3970   -0.6820 h1        1 MOL      0.043600
     10 H2          0.0020    0.0020    0.0040 h1        1 MOL      0.043600
     11 H3          0.0180   -2.2250   -1.0080 h1        1 MOL      0.043600
     12 H4          0.3130   -0.9930   -2.2420 h1        1 MOL      0.043600
     13 H5          3.3100   -2.1500    1.4160 h1        1 MOL      0.043600
     14 H6          3.6060   -0.9190    0.1810 h1        1 MOL      0.043600
     15 H7          3.6210   -3.1460   -0.8290 h1        1 MOL      0.043600
     16 H8          2.0380   -3.5400   -0.1440 h1        1 MOL      0.043600
     17 H9          0.8800    0.3160    2.3740 h1        1 MOL      0.031400
     18 H10         2.3270    0.8760    1.5060 h1        1 MOL      0.031400
     19 H11         2.4680   -0.4000    2.7300 h1        1 MOL      0.031400
     20 H12         2.1080   -4.1280   -2.4080 h1        1 MOL      0.031400
     21 H13         2.3660   -2.8940   -3.6620 h1        1 MOL      0.031400
     22 H14         0.7340   -3.1870   -3.0310 h1        1 MOL      0.031400
@<TRIPOS>BOND
     1    1    2 1   
     2    1    7 1   
     3    2    8 1   
     4    3    4 1   
     5    3    7 1   
     6    4    8 1   
     7    5    7 1   
     8    6    8 1   
     9    1    9 1   
    10    1   10 1   
    11    2   11 1   
    12    2   12 1   
    13    3   13 1   
    14    3   14 1   
    15    4   15 1   
    16    4   16 1   
    17    5   17 1   
    18    5   18 1   
    19    5   19 1   
    20    6   20 1   
    21    6   21 1   
    22    6   22 1   
@<TRIPOS>SUBSTRUCTURE
     1 R0_         1 TEMP              0 ****  ****    0 ROOT
