@<TRIPOS>MOLECULE
111_trifluoropropan_2_ol
   12    11     1     0     0
SMALL
No Charge or Current Charge


@<TRIPOS>ATOM
      1 C1          0.0800    0.6410   -0.8830 c3        1 MOL     -0.139300
      2 C2          0.6190   -0.1280   -2.0800 c3        1 MOL      0.125800
      3 C3          0.8240    0.7690   -3.2820 c3        1 MOL      0.596900
      4 O1          1.8730   -0.7090   -1.7380 oh        1 MOL     -0.571300
      5 F1         -0.3450    1.3080   -3.6910 f         1 MOL     -0.243300
      6 F2          1.6590    1.7890   -2.9850 f         1 MOL     -0.243300
      7 F3          1.3530    0.0920   -4.3240 f         1 MOL     -0.243300
      8 H1          0.7230    1.4950   -0.6420 hc        1 MOL      0.062600
      9 H2          0.0000    0.0000    0.0000 hc        1 MOL      0.062600
     10 H3         -0.9120    1.0490   -1.1060 hc        1 MOL      0.062600
     11 H4         -0.0690   -0.9380   -2.3420 h1        1 MOL      0.113400
     12 H5          1.7010   -1.6420   -1.5360 ho        1 MOL      0.416500
@<TRIPOS>BOND
     1    1    2 1   
     2    2    3 1   
     3    2    4 1   
     4    3    5 1   
     5    3    6 1   
     6    3    7 1   
     7    1    8 1   
     8    1    9 1   
     9    1   10 1   
    10    2   11 1   
    11    4   12 1   
@<TRIPOS>SUBSTRUCTURE
     1 R0_         1 TEMP              0 ****  ****    0 ROOT
