@<TRIPOS>MOLECULE
s61
   14    13     1     0     0
SMALL
bcc


@<TRIPOS>ATOM
      1 H3         -1.7780   -0.4710   -0.0910 hc        1 MOL       0.0322
      2 C1         -1.9780    0.0030   -1.0330 c3        1 MOL      -0.0926
      3 H2         -1.0410    0.3740   -1.4610 hc        1 MOL       0.0321
      4 H6         -2.5990    0.8750   -0.8330 hc        1 MOL       0.0322
      5 C3         -2.6860   -0.9260   -1.9960 c3        1 MOL      -0.0804
      6 H1         -2.0270   -1.7840   -2.2110 hc        1 MOL       0.0382
      7 H7         -2.8610   -0.4360   -2.9490 hc        1 MOL       0.0382
      8 C5         -4.0040   -1.4420   -1.4240 c3        1 MOL      -0.0804
      9 H10        -3.8030   -1.9500   -0.4810 hc        1 MOL       0.0382
     10 C7         -4.7040   -2.3870   -2.3750 c3        1 MOL      -0.0926
     11 H8         -4.0860   -3.2500   -2.5790 hc        1 MOL       0.0322
     12 H9         -5.6570   -2.7670   -1.9630 hc        1 MOL       0.0321
     13 H4         -4.9210   -1.9050   -3.3530 hc        1 MOL       0.0322
     14 H5         -4.6720   -0.5830   -1.2210 hc        1 MOL       0.0382
@<TRIPOS>BOND
     1    1    2 1   
     2    2    3 1   
     3    2    4 1   
     4    2    5 1   
     5    5    6 1   
     6    5    7 1   
     7    5    8 1   
     8    8    9 1   
     9    8   10 1   
    10    8   14 1   
    11   10   11 1   
    12   10   12 1   
    13   10   13 1   
@<TRIPOS>SUBSTRUCTURE
     1 s61         1 TEMP              0 ****  ****    0 ROOT
