@<TRIPOS>MOLECULE
CUP08021_AM1BCC_v1_0
    7     6     1     0     0
SMALL
No Charge or Current Charge


@<TRIPOS>ATOM
      1 C1          1.4280   -0.1420    0.4900 c3        1 MOL      0.185100
      2 N1         -0.0220    0.0040   -0.0070 no        1 MOL      0.231800
      3 O1         -0.4790   -0.9010   -0.7310 o         1 MOL     -0.147400
      4 O2         -0.6800    1.0040    0.3260 o         1 MOL     -0.147400
      5 Cl1         1.4820   -1.6290    1.4530 cl        1 MOL     -0.040700
      6 Cl2         2.4510   -0.2340   -0.9550 cl        1 MOL     -0.040700
      7 Cl3         1.8770    1.2600    1.4800 cl        1 MOL     -0.040700
@<TRIPOS>BOND
     1    1    2 1   
     2    1    5 1   
     3    1    6 1   
     4    1    7 1   
     5    2    3 1   
     6    2    4 1   
@<TRIPOS>SUBSTRUCTURE
     1 R0_         1 TEMP              0 ****  ****    0 ROOT
