@<TRIPOS>MOLECULE
methyl_p_nitrobenzoate
   20    20     1     0     0
SMALL
No Charge or Current Charge


@<TRIPOS>ATOM
      1 C1          0.8180   -0.4390    0.5640 ca        1 MOL     -0.080800
      2 C2          2.9370   -1.5970    0.6200 ca        1 MOL     -0.080800
      3 C3          0.7990   -0.4060    1.9590 ca        1 MOL     -0.088900
      4 C4          2.9180   -1.5650    2.0140 ca        1 MOL     -0.088900
      5 C5          1.8870   -1.0340   -0.1050 ca        1 MOL     -0.095500
      6 C6          1.8500   -0.9690    2.6840 ca        1 MOL     -0.140300
      7 C7          1.9060   -1.0670   -1.5590 c         1 MOL      0.638600
      8 C8          3.1650   -1.7810   -3.4550 c3        1 MOL      0.130700
      9 N1          1.8310   -0.9340    4.1030 no        1 MOL      0.307700
     10 O1          1.0200   -0.5920   -2.2820 o         1 MOL     -0.527300
     11 O2          0.8610   -0.3920    4.6860 o         1 MOL     -0.197500
     12 O3          2.7860   -1.4470    4.7360 o         1 MOL     -0.197500
     13 O4          3.0290   -1.6880   -2.0330 os        1 MOL     -0.437100
     14 H1         -0.0050    0.0040    0.0090 ha        1 MOL      0.172100
     15 H2          3.7740   -2.0650    0.1070 ha        1 MOL      0.172100
     16 H3         -0.0400    0.0610    2.4680 ha        1 MOL      0.174300
     17 H4          3.7440   -2.0060    2.5670 ha        1 MOL      0.174300
     18 H5          4.0610   -2.3570   -3.7000 h1        1 MOL      0.054900
     19 H6          3.2360   -0.7780   -3.8830 h1        1 MOL      0.054900
     20 H7          2.2870   -2.2880   -3.8640 h1        1 MOL      0.054900
@<TRIPOS>BOND
     1    1    3 ar  
     2    1    5 ar  
     3    2    4 ar  
     4    2    5 ar  
     5    3    6 ar  
     6    4    6 ar  
     7    5    7 1   
     8    6    9 1   
     9    7   10 2   
    10    7   13 1   
    11    8   13 1   
    12    9   11 1   
    13    9   12 1   
    14    1   14 1   
    15    2   15 1   
    16    3   16 1   
    17    4   17 1   
    18    8   18 1   
    19    8   19 1   
    20    8   20 1   
@<TRIPOS>SUBSTRUCTURE
     1 R0_         1 TEMP              0 ****  ****    0 ROOT
