@<TRIPOS>MOLECULE
n_propylamine
   13    12     1     0     0
SMALL
No Charge or Current Charge


@<TRIPOS>ATOM
      1 C1          0.9950   -0.2870    0.3540 c3        1 MOL     -0.089700
      2 C2          1.1800    0.0830    1.8180 c3        1 MOL     -0.122000
      3 C3          0.1580   -0.6240    2.7040 c3        1 MOL      0.152100
      4 N1          0.3420   -0.2370    4.0980 n3        1 MOL     -0.904800
      5 H1          1.1160   -1.3650    0.2040 hc        1 MOL      0.032600
      6 H2          0.0000   -0.0000    0.0000 hc        1 MOL      0.032600
      7 H3          1.7380    0.2280   -0.2640 hc        1 MOL      0.032600
      8 H4          1.0850    1.1700    1.9270 hc        1 MOL      0.039800
      9 H5          2.1980   -0.1850    2.1280 hc        1 MOL      0.039800
     10 H6          0.2630   -1.7110    2.6110 h1        1 MOL      0.049800
     11 H7         -0.8590   -0.3600    2.3920 h1        1 MOL      0.049800
     12 H8          0.9700    0.5620    4.1410 hn        1 MOL      0.343700
     13 H9          0.8050   -0.9950    4.5940 hn        1 MOL      0.343700
@<TRIPOS>BOND
     1    1    2 1   
     2    2    3 1   
     3    3    4 1   
     4    1    5 1   
     5    1    6 1   
     6    1    7 1   
     7    2    8 1   
     8    2    9 1   
     9    3   10 1   
    10    3   11 1   
    11    4   12 1   
    12    4   13 1   
@<TRIPOS>SUBSTRUCTURE
     1 R0_         1 TEMP              0 ****  ****    0 ROOT
