@<TRIPOS>MOLECULE
nonanal
   28    27     1     0     0
SMALL
No Charge or Current Charge


@<TRIPOS>ATOM
      1 C1          0.4910   -9.7370   -2.7710 c         1 MOL      0.560300
      2 C2         -1.1900   -0.0010   -0.4310 c3        1 MOL     -0.089700
      3 C3         -0.4460   -8.7160   -2.1680 c3        1 MOL     -0.198200
      4 C4         -1.7150   -1.4250   -0.3270 c3        1 MOL     -0.078000
      5 C5          0.0930   -7.2880   -2.1930 c3        1 MOL     -0.071100
      6 C6         -0.7680   -2.4190   -1.0010 c3        1 MOL     -0.077200
      7 C7         -0.8810   -6.2840   -1.5690 c3        1 MOL     -0.077400
      8 C8         -1.2870   -3.8590   -0.9870 c3        1 MOL     -0.076800
      9 C9         -0.3280   -4.8580   -1.6390 c3        1 MOL     -0.077000
     10 O1          1.6170   -9.4950   -3.1900 o         1 MOL     -0.522600
     11 H1          0.0800  -10.7590   -2.8370 h4        1 MOL     -0.008600
     12 H2         -1.0880    0.3040   -1.4780 hc        1 MOL      0.031700
     13 H3         -1.8790    0.6930    0.0600 hc        1 MOL      0.031700
     14 H4         -0.2120    0.0930    0.0510 hc        1 MOL      0.031700
     15 H5         -0.6740   -9.0270   -1.1430 hc        1 MOL      0.068000
     16 H6         -1.3750   -8.7640   -2.7470 hc        1 MOL      0.068000
     17 H7         -2.7050   -1.4780   -0.7930 hc        1 MOL      0.037500
     18 H8         -1.8380   -1.6750    0.7320 hc        1 MOL      0.037500
     19 H9          0.2720   -7.0030   -3.2370 hc        1 MOL      0.045800
     20 H10         1.0610   -7.2390   -1.6790 hc        1 MOL      0.045800
     21 H11         0.2170   -2.3770   -0.5210 hc        1 MOL      0.038900
     22 H12        -0.6210   -2.1190   -2.0470 hc        1 MOL      0.038900
     23 H13        -1.0750   -6.5460   -0.5230 hc        1 MOL      0.041400
     24 H14        -1.8410   -6.3310   -2.0960 hc        1 MOL      0.041400
     25 H15        -2.2450   -3.8820   -1.5210 hc        1 MOL      0.038800
     26 H16        -1.4940   -4.1650    0.0460 hc        1 MOL      0.038800
     27 H17        -0.1640   -4.5790   -2.6870 hc        1 MOL      0.040100
     28 H18         0.6460   -4.8270   -1.1370 hc        1 MOL      0.040100
@<TRIPOS>BOND
     1    1    3 1   
     2    1   10 2   
     3    2    4 1   
     4    3    5 1   
     5    4    6 1   
     6    5    7 1   
     7    6    8 1   
     8    7    9 1   
     9    8    9 1   
    10    1   11 1   
    11    2   12 1   
    12    2   13 1   
    13    2   14 1   
    14    3   15 1   
    15    3   16 1   
    16    4   17 1   
    17    4   18 1   
    18    5   19 1   
    19    5   20 1   
    20    6   21 1   
    21    6   22 1   
    22    7   23 1   
    23    7   24 1   
    24    8   25 1   
    25    8   26 1   
    26    9   27 1   
    27    9   28 1   
@<TRIPOS>SUBSTRUCTURE
     1 R0_         1 TEMP              0 ****  ****    0 ROOT
