@<TRIPOS>MOLECULE
toluene
   15    15     1     0     0
SMALL
No Charge or Current Charge


@<TRIPOS>ATOM
      1 C1          1.9310   -1.0140   -1.6030 c3        1 MOL     -0.054000
      2 C2          1.8850   -1.0360   -0.1120 ca        1 MOL     -0.077000
      3 C3          2.9210   -1.6310    0.6080 ca        1 MOL     -0.130500
      4 C4          2.8780   -1.6520    2.0020 ca        1 MOL     -0.126800
      5 C5          1.8000   -1.0790    2.6760 ca        1 MOL     -0.135000
      6 C6          0.7640   -0.4840    1.9550 ca        1 MOL     -0.126800
      7 C7          0.8070   -0.4630    0.5610 ca        1 MOL     -0.130500
      8 H1          2.4390   -0.1080   -1.9480 hc        1 MOL      0.043600
      9 H2          2.4640   -1.8890   -1.9910 hc        1 MOL      0.043600
     10 H3          0.9210   -1.0370   -2.0250 hc        1 MOL      0.043600
     11 H4          3.7650   -2.0800    0.0910 ha        1 MOL      0.130200
     12 H5          3.6850   -2.1150    2.5630 ha        1 MOL      0.129800
     13 H6          1.7660   -1.0950    3.7610 ha        1 MOL      0.129800
     14 H7         -0.0760   -0.0380    2.4790 ha        1 MOL      0.129800
     15 H8         -0.0050    0.0030    0.0080 ha        1 MOL      0.130200
@<TRIPOS>BOND
     1    1    2 1   
     2    2    7 ar  
     3    2    3 ar  
     4    3    4 ar  
     5    4    5 ar  
     6    5    6 ar  
     7    6    7 ar  
     8    1    8 1   
     9    1    9 1   
    10    1   10 1   
    11    3   11 1   
    12    4   12 1   
    13    5   13 1   
    14    6   14 1   
    15    7   15 1   
@<TRIPOS>SUBSTRUCTURE
     1 MOL         1 TEMP              0 ****  ****    0 ROOT
