@<TRIPOS>MOLECULE
octan_1_ol
   27    26     1     0     0
SMALL
No Charge or Current Charge


@<TRIPOS>ATOM
      1 C1          2.7490    3.1260   -2.5860 c3        1 MOL     -0.089800
      2 C2          2.2130    1.7320   -2.8710 c3        1 MOL     -0.078100
      3 C3          1.0300    1.7730   -3.8400 c3        1 MOL     -0.077200
      4 C4          0.5210    0.3650   -4.1520 c3        1 MOL     -0.076700
      5 C5         -0.6200    0.3420   -5.1750 c3        1 MOL     -0.077000
      6 C6         -1.0790   -1.0710   -5.5420 c3        1 MOL     -0.075800
      7 C7         -2.2000   -1.0350   -6.5800 c3        1 MOL     -0.116900
      8 C8         -2.6930   -2.4340   -6.9230 c3        1 MOL      0.129700
      9 O1         -3.7190   -2.3330   -7.9000 oh        1 MOL     -0.600600
     10 H1          1.9770    3.7580   -2.1360 hc        1 MOL      0.031700
     11 H2          3.0960    3.6080   -3.5050 hc        1 MOL      0.031700
     12 H3          3.5920    3.0720   -1.8900 hc        1 MOL      0.031700
     13 H4          1.9060    1.2640   -1.9290 hc        1 MOL      0.037500
     14 H5          3.0180    1.1170   -3.2910 hc        1 MOL      0.037500
     15 H6          0.2280    2.3740   -3.3970 hc        1 MOL      0.038700
     16 H7          1.3340    2.2700   -4.7690 hc        1 MOL      0.038700
     17 H8          0.1950   -0.1250   -3.2270 hc        1 MOL      0.038700
     18 H9          1.3490   -0.2340   -4.5520 hc        1 MOL      0.038700
     19 H10        -1.4690    0.9200   -4.7910 hc        1 MOL      0.039000
     20 H11        -0.2740    0.8530   -6.0820 hc        1 MOL      0.039000
     21 H12        -1.4360   -1.5950   -4.6490 hc        1 MOL      0.042000
     22 H13        -0.2310   -1.6420   -5.9380 hc        1 MOL      0.042000
     23 H14        -1.8540   -0.5380   -7.4960 hc        1 MOL      0.046000
     24 H15        -3.0400   -0.4330   -6.2120 hc        1 MOL      0.046000
     25 H16        -1.8820   -3.0440   -7.3320 h1        1 MOL      0.043200
     26 H17        -3.1020   -2.9320   -6.0380 h1        1 MOL      0.043200
     27 H18        -3.3050   -2.5050   -8.7610 ho        1 MOL      0.397000
@<TRIPOS>BOND
     1    1    2 1   
     2    2    3 1   
     3    3    4 1   
     4    4    5 1   
     5    5    6 1   
     6    6    7 1   
     7    7    8 1   
     8    8    9 1   
     9    1   10 1   
    10    1   11 1   
    11    1   12 1   
    12    2   13 1   
    13    2   14 1   
    14    3   15 1   
    15    3   16 1   
    16    4   17 1   
    17    4   18 1   
    18    5   19 1   
    19    5   20 1   
    20    6   21 1   
    21    6   22 1   
    22    7   23 1   
    23    7   24 1   
    24    8   25 1   
    25    8   26 1   
    26    9   27 1   
@<TRIPOS>SUBSTRUCTURE
     1 R0_         1 TEMP              0 ****  ****    0 ROOT
