@<TRIPOS>MOLECULE
3_ethylpyridine
   17    17     1     0     0
SMALL
No Charge or Current Charge


@<TRIPOS>ATOM
      1 C1          0.2060   -0.4420    0.9680 ca        1 MOL     -0.243800
      2 C2          1.3350   -0.0800    1.6950 ca        1 MOL     -0.093100
      3 C3         -0.6460   -1.3850    1.5200 ca        1 MOL      0.388500
      4 C4          0.6600   -1.5970    3.3980 ca        1 MOL      0.395000
      5 C5          1.5730   -0.6640    2.9340 ca        1 MOL     -0.182000
      6 C6          3.9760   -1.1850    3.4230 c3        1 MOL     -0.087700
      7 C7          2.7720   -0.2980    3.7360 c3        1 MOL     -0.041700
      8 N1         -0.4480   -1.9740    2.7210 nb        1 MOL     -0.663500
      9 H1         -0.0000   -0.0000    0.0000 ha        1 MOL      0.142100
     10 H2          2.0220    0.6560    1.2880 ha        1 MOL      0.137400
     11 H3         -1.5400   -1.7020    0.9920 h4        1 MOL      0.021100
     12 H4          0.7930   -2.0870    4.3580 h4        1 MOL      0.021300
     13 H5          3.7540   -2.2360    3.6350 hc        1 MOL      0.036800
     14 H6          4.8420   -0.8930    4.0260 hc        1 MOL      0.036800
     15 H7          4.2560   -1.1070    2.3670 hc        1 MOL      0.036800
     16 H8          3.0490    0.7550    3.5610 hc        1 MOL      0.048100
     17 H9          2.5520   -0.3630    4.8150 hc        1 MOL      0.048100
@<TRIPOS>BOND
     1    1    2 ar  
     2    1    3 ar  
     3    2    5 ar  
     4    3    8 ar  
     5    4    5 ar  
     6    4    8 ar  
     7    5    7 1   
     8    6    7 1   
     9    1    9 1   
    10    2   10 1   
    11    3   11 1   
    12    4   12 1   
    13    6   13 1   
    14    6   14 1   
    15    6   15 1   
    16    7   16 1   
    17    7   17 1   
@<TRIPOS>SUBSTRUCTURE
     1 R0_         1 TEMP              0 ****  ****    0 ROOT
