@<TRIPOS>MOLECULE
N_methylpiperazine
   19    19     1     0     0
SMALL
No Charge or Current Charge


@<TRIPOS>ATOM
      1 C1         -0.3120   -0.9380    0.4730 c3        1 MOL      0.141500
      2 C2          0.0900   -3.3040    0.5320 c3        1 MOL      0.141500
      3 C3         -0.0740   -0.8520    1.9820 c3        1 MOL      0.148500
      4 C4          0.3300   -3.2320    2.0420 c3        1 MOL      0.148500
      5 C5         -0.1860   -2.0440    4.0770 c3        1 MOL      0.148600
      6 N1          0.4340   -2.0440   -0.1320 n3        1 MOL     -0.806700
      7 N2         -0.4220   -2.1200    2.6360 n3        1 MOL     -0.710500
      8 H1         -1.3840   -1.0510    0.2630 h1        1 MOL      0.038000
      9 H2          0.0070   -0.0000    0.0050 h1        1 MOL      0.038000
     10 H3          0.7050   -4.1050    0.1070 h1        1 MOL      0.038000
     11 H4         -0.9570   -3.5610    0.3260 h1        1 MOL      0.038000
     12 H5          0.9750   -0.5900    2.1780 h1        1 MOL      0.045200
     13 H6         -0.6950   -0.0450    2.3900 h1        1 MOL      0.045200
     14 H7          0.0070   -4.1780    2.4930 h1        1 MOL      0.045200
     15 H8          1.4050   -3.1240    2.2420 h1        1 MOL      0.045200
     16 H9         -1.0910   -1.7210    4.5980 h1        1 MOL      0.032200
     17 H10         0.6160   -1.3320    4.2900 h1        1 MOL      0.032200
     18 H11         0.1110   -3.0230    4.4630 h1        1 MOL      0.032200
     19 H12         0.2060   -2.1070   -1.1230 hn        1 MOL      0.359600
@<TRIPOS>BOND
     1    1    3 1   
     2    1    6 1   
     3    2    4 1   
     4    2    6 1   
     5    3    7 1   
     6    4    7 1   
     7    5    7 1   
     8    1    8 1   
     9    1    9 1   
    10    2   10 1   
    11    2   11 1   
    12    3   12 1   
    13    3   13 1   
    14    4   14 1   
    15    4   15 1   
    16    5   16 1   
    17    5   17 1   
    18    5   18 1   
    19    6   19 1   
@<TRIPOS>SUBSTRUCTURE
     1 R0_         1 TEMP              0 ****  ****    0 ROOT
