@<TRIPOS>MOLECULE
2_methoxy_111_trimethoxyethane
   24    23     1     0     0
SMALL
No Charge or Current Charge


@<TRIPOS>ATOM
      1 C1          0.2410    3.0420   -3.5110 c3        1 MOL      0.117200
      2 C2         -2.4030   -0.4390   -0.8450 c3        1 MOL      0.134200
      3 C3         -4.2230    2.3630   -0.4030 c3        1 MOL      0.134200
      4 C4         -0.2420    2.7580    0.9070 c3        1 MOL      0.134200
      5 C5         -0.8530    1.8230   -1.8260 c3        1 MOL      0.118500
      6 C6         -1.8770    1.9220   -0.6770 c3        1 MOL      0.530600
      7 O1         -0.7390    3.0800   -2.4830 os        1 MOL     -0.403600
      8 O2         -1.9820    0.6390   -0.0210 os        1 MOL     -0.445200
      9 O3         -3.1390    2.2310   -1.3140 os        1 MOL     -0.445200
     10 O4         -1.4990    2.9390    0.2700 os        1 MOL     -0.445200
     11 H1          0.9240    2.2080   -3.3320 h1        1 MOL      0.035700
     12 H2          0.7940    3.9840   -3.5230 h1        1 MOL      0.035700
     13 H3         -0.2580    2.9010   -4.4730 h1        1 MOL      0.035700
     14 H4         -2.6420   -0.0630   -1.8430 h1        1 MOL      0.040600
     15 H5         -3.2820   -0.9150   -0.4030 h1        1 MOL      0.040600
     16 H6         -1.5940   -1.1690   -0.9170 h1        1 MOL      0.040600
     17 H7         -3.8950    2.0780    0.6000 h1        1 MOL      0.040600
     18 H8         -5.0500    1.7240   -0.7230 h1        1 MOL      0.040600
     19 H9         -4.5530    3.4050   -0.3930 h1        1 MOL      0.040600
     20 H10         0.5050    3.3970    0.4280 h1        1 MOL      0.040600
     21 H11         0.0570    1.7100    0.8330 h1        1 MOL      0.040600
     22 H12        -0.3340    3.0350    1.9600 h1        1 MOL      0.040600
     23 H13        -1.1420    1.0660   -2.5610 h1        1 MOL      0.049100
     24 H14         0.1410    1.5640   -1.4470 h1        1 MOL      0.049100
@<TRIPOS>BOND
     1    1    7 1   
     2    2    8 1   
     3    3    9 1   
     4    4   10 1   
     5    5    6 1   
     6    5    7 1   
     7    6    8 1   
     8    6    9 1   
     9    6   10 1   
    10    1   11 1   
    11    1   12 1   
    12    1   13 1   
    13    2   14 1   
    14    2   15 1   
    15    2   16 1   
    16    3   17 1   
    17    3   18 1   
    18    3   19 1   
    19    4   20 1   
    20    4   21 1   
    21    4   22 1   
    22    5   23 1   
    23    5   24 1   
@<TRIPOS>SUBSTRUCTURE
     1 R0_         1 TEMP              0 ****  ****    0 ROOT
