@<TRIPOS>MOLECULE
cyclohexylamine
   20    20     1     0     0
SMALL
No Charge or Current Charge


@<TRIPOS>ATOM
      1 C1          1.0090    0.0280    0.4300 c3        1 MOL     -0.072400
      2 C2          1.9790    0.6050   -0.5980 c3        1 MOL     -0.071000
      3 C3          0.9870    0.8490    1.7160 c3        1 MOL     -0.071000
      4 C4          1.6940    2.0820   -0.8730 c3        1 MOL     -0.070300
      5 C5          0.7040    2.3260    1.4360 c3        1 MOL     -0.070300
      6 C6          1.6670    2.9310    0.4050 c3        1 MOL      0.174000
      7 N1          3.0130    3.0390    0.9710 n3        1 MOL     -0.913200
      8 H1          0.0000    0.0010   -0.0000 hc        1 MOL      0.036000
      9 H2          1.2860   -1.0080    0.6580 hc        1 MOL      0.036000
     10 H3          3.0080    0.4840   -0.2400 hc        1 MOL      0.040300
     11 H4          1.9020    0.0380   -1.5330 hc        1 MOL      0.040300
     12 H5          0.2200    0.4520    2.3910 hc        1 MOL      0.040300
     13 H6          1.9480    0.7450    2.2340 hc        1 MOL      0.040300
     14 H7          2.4400    2.4750   -1.5760 hc        1 MOL      0.040500
     15 H8          0.7220    2.1670   -1.3750 hc        1 MOL      0.040500
     16 H9         -0.3230    2.4240    1.0610 hc        1 MOL      0.040500
     17 H10         0.7460    2.8920    2.3750 hc        1 MOL      0.040500
     18 H11         1.3300    3.9430    0.1540 h1        1 MOL      0.004000
     19 H12         3.0340    3.8160    1.6260 hn        1 MOL      0.347400
     20 H13         3.6650    3.2690    0.2270 hn        1 MOL      0.347400
@<TRIPOS>BOND
     1    1    2 1   
     2    1    3 1   
     3    2    4 1   
     4    3    5 1   
     5    4    6 1   
     6    5    6 1   
     7    6    7 1   
     8    1    8 1   
     9    1    9 1   
    10    2   10 1   
    11    2   11 1   
    12    3   12 1   
    13    3   13 1   
    14    4   14 1   
    15    4   15 1   
    16    5   16 1   
    17    5   17 1   
    18    6   18 1   
    19    7   19 1   
    20    7   20 1   
@<TRIPOS>SUBSTRUCTURE
     1 R0_         1 TEMP              0 ****  ****    0 ROOT
