@<TRIPOS>MOLECULE
2_methylpyrazine
   13    13     1     0     0
SMALL
No Charge or Current Charge


@<TRIPOS>ATOM
      1 C1         -1.7560   -1.1750    0.4300 ca        1 MOL      0.271800
      2 C2         -0.4280   -0.9880    0.1160 ca        1 MOL      0.286900
      3 C3         -1.4460   -3.4400    0.3940 ca        1 MOL      0.274800
      4 C4         -0.1180   -3.2540    0.0800 ca        1 MOL      0.301400
      5 C5          0.7840   -4.4230   -0.1130 c3        1 MOL     -0.145100
      6 N1         -2.2890   -2.4040    0.5750 nb        1 MOL     -0.626000
      7 N2          0.4150   -2.0240   -0.0650 nb        1 MOL     -0.633300
      8 H1         -2.4320   -0.3420    0.5750 h4        1 MOL      0.033800
      9 H2          0.0000   -0.0000   -0.0000 h4        1 MOL      0.033100
     10 H3         -1.8820   -4.4250    0.5130 h4        1 MOL      0.032400
     11 H4          1.4810   -4.5130    0.7300 hc        1 MOL      0.056700
     12 H5          0.2150   -5.3590   -0.1920 hc        1 MOL      0.056700
     13 H6          1.3690   -4.3300   -1.0380 hc        1 MOL      0.056700
@<TRIPOS>BOND
     1    1    2 ar  
     2    1    6 ar  
     3    2    7 ar  
     4    3    4 ar  
     5    3    6 ar  
     6    4    5 1   
     7    4    7 ar  
     8    1    8 1   
     9    2    9 1   
    10    3   10 1   
    11    5   11 1   
    12    5   12 1   
    13    5   13 1   
@<TRIPOS>SUBSTRUCTURE
     1 R0_         1 TEMP              0 ****  ****    0 ROOT
