@<TRIPOS>MOLECULE
cyclohepta_135_triene
   15    15     1     0     0
SMALL
No Charge or Current Charge


@<TRIPOS>ATOM
      1 C1          0.7690    0.7140    0.2900 ce        1 MOL     -0.119600
      2 C2          2.0430    0.3200    0.1940 cf        1 MOL     -0.119600
      3 C3          0.2560    1.9770    0.7510 ce        1 MOL     -0.133900
      4 C4          3.2340    1.0540    0.5250 cf        1 MOL     -0.133900
      5 C5          0.9100    3.1330    0.9140 c2        1 MOL     -0.143600
      6 C6          3.3730    2.3700    0.7270 c2        1 MOL     -0.143600
      7 C7          2.3580    3.4710    0.7400 c3        1 MOL     -0.002800
      8 H1          0.0000    0.0000   -0.0010 ha        1 MOL      0.119600
      9 H2          2.2280   -0.6900   -0.1700 ha        1 MOL      0.119600
     10 H3         -0.8170    1.9780    0.9390 ha        1 MOL      0.118000
     11 H4          4.1360    0.4450    0.5630 ha        1 MOL      0.118000
     12 H5          0.3000    3.9820    1.2230 ha        1 MOL      0.113600
     13 H6          4.3910    2.7150    0.9120 ha        1 MOL      0.113600
     14 H7          2.4750    4.0730   -0.1690 hc        1 MOL      0.047300
     15 H8          2.6250    4.1280    1.5780 hc        1 MOL      0.047300
@<TRIPOS>BOND
     1    1    2 2   
     2    1    3 1   
     3    2    4 1   
     4    3    5 2   
     5    4    6 2   
     6    5    7 1   
     7    6    7 1   
     8    1    8 1   
     9    2    9 1   
    10    3   10 1   
    11    4   11 1   
    12    5   12 1   
    13    6   13 1   
    14    7   14 1   
    15    7   15 1   
@<TRIPOS>SUBSTRUCTURE
     1 R0_         1 TEMP              0 ****  ****    0 ROOT
