@<TRIPOS>MOLECULE
1_bromopropane
   11    10     1     0     0
SMALL
No Charge or Current Charge


@<TRIPOS>ATOM
      1 C1         -0.5850   -0.6390    0.6690 c3        1 MOL     -0.094700
      2 C2         -0.0410   -0.5870    2.0870 c3        1 MOL     -0.078200
      3 C3          1.3990   -1.0650    2.1400 c3        1 MOL     -0.005800
      4 Br1         2.0720   -0.9280    3.9620 br        1 MOL     -0.181700
      5 H1         -1.6230   -0.2920    0.6480 hc        1 MOL      0.038400
      6 H2          0.0000    0.0000    0.0000 hc        1 MOL      0.038400
      7 H3         -0.5610   -1.6610    0.2770 hc        1 MOL      0.038400
      8 H4         -0.6710   -1.2070    2.7360 hc        1 MOL      0.052200
      9 H5         -0.1140    0.4410    2.4620 hc        1 MOL      0.052200
     10 H6          2.0580   -0.4530    1.5180 h1        1 MOL      0.070400
     11 H7          1.4940   -2.1150    1.8500 h1        1 MOL      0.070400
@<TRIPOS>BOND
     1    1    2 1   
     2    2    3 1   
     3    3    4 1   
     4    1    5 1   
     5    1    6 1   
     6    1    7 1   
     7    2    8 1   
     8    2    9 1   
     9    3   10 1   
    10    3   11 1   
@<TRIPOS>SUBSTRUCTURE
     1 R0_         1 TEMP              0 ****  ****    0 ROOT
