@<TRIPOS>MOLECULE
3_nitrophenol
   15    15     1     0     0
SMALL
No Charge or Current Charge


@<TRIPOS>ATOM
      1 C1          0.8320   -0.3950    0.5750 ca        1 MOL     -0.096200
      2 C2          1.8990   -1.0140   -0.0770 ca        1 MOL     -0.109700
      3 C3          0.8350   -0.2830    1.9660 ca        1 MOL     -0.178500
      4 C4          2.9710   -1.4090    2.0520 ca        1 MOL     -0.102400
      5 C5          2.9680   -1.5200    0.6620 ca        1 MOL     -0.133500
      6 C6          1.9040   -0.7900    2.7040 ca        1 MOL      0.122600
      7 N1          4.0550   -2.1500   -0.0020 no        1 MOL      0.309500
      8 O1          4.0330   -2.2390   -1.2530 o         1 MOL     -0.200700
      9 O2          5.0070   -2.5990    0.6810 o         1 MOL     -0.200700
     10 O3          1.9070   -0.6800    4.0610 oh        1 MOL     -0.487300
     11 H1         -0.0000   -0.0000    0.0000 ha        1 MOL      0.150000
     12 H2          1.8850   -1.0930   -1.1610 ha        1 MOL      0.169500
     13 H3          0.0010    0.2000    2.4670 ha        1 MOL      0.145400
     14 H4          3.8010   -1.8020    2.6340 ha        1 MOL      0.184900
     15 H5          1.2260   -0.0340    4.3250 ho        1 MOL      0.427200
@<TRIPOS>BOND
     1    1    2 ar  
     2    1    3 ar  
     3    2    5 ar  
     4    3    6 ar  
     5    4    5 ar  
     6    4    6 ar  
     7    5    7 1   
     8    6   10 1   
     9    7    8 1   
    10    7    9 1   
    11    1   11 1   
    12    2   12 1   
    13    3   13 1   
    14    4   14 1   
    15   10   15 1   
@<TRIPOS>SUBSTRUCTURE
     1 R0_         1 TEMP              0 ****  ****    0 ROOT
