@<TRIPOS>MOLECULE
cyclohexanol
   19    19     1     0     0
SMALL
No Charge or Current Charge


@<TRIPOS>ATOM
      1 C1          0.8600   -0.5760   -0.3650 c3        1 MOL     -0.075300
      2 C2          1.9980   -0.4820    0.6480 c3        1 MOL     -0.072300
      3 C3          1.2770   -0.0490   -1.7360 c3        1 MOL     -0.072300
      4 C4          2.5550    0.9350    0.7370 c3        1 MOL     -0.090700
      5 C5          1.8340    1.3680   -1.6460 c3        1 MOL     -0.090700
      6 C6          2.9750    1.4610   -0.6340 c3        1 MOL      0.144000
      7 O1          3.4010    2.8140   -0.5170 oh        1 MOL     -0.602600
      8 H1          0.5300   -1.6170   -0.4540 hc        1 MOL      0.038900
      9 H2          0.0000    0.0000   -0.0000 hc        1 MOL      0.038900
     10 H3          1.6420   -0.8020    1.6340 hc        1 MOL      0.041100
     11 H4          2.8010   -1.1720    0.3590 hc        1 MOL      0.041100
     12 H5          2.0370   -0.7130   -2.1650 hc        1 MOL      0.041100
     13 H6          0.4170   -0.0660   -2.4150 hc        1 MOL      0.041100
     14 H7          1.8040    1.6050    1.1760 hc        1 MOL      0.047500
     15 H8          3.4110    0.9600    1.4220 hc        1 MOL      0.047500
     16 H9          2.1840    1.6980   -2.6320 hc        1 MOL      0.047500
     17 H10         1.0350    2.0660   -1.3660 hc        1 MOL      0.047500
     18 H11         3.8330    0.8830   -0.9990 h1        1 MOL      0.029700
     19 H12         3.9380    3.0060   -1.3020 ho        1 MOL      0.398100
@<TRIPOS>BOND
     1    1    2 1   
     2    1    3 1   
     3    2    4 1   
     4    3    5 1   
     5    4    6 1   
     6    5    6 1   
     7    6    7 1   
     8    1    8 1   
     9    1    9 1   
    10    2   10 1   
    11    2   11 1   
    12    3   12 1   
    13    3   13 1   
    14    4   14 1   
    15    4   15 1   
    16    5   16 1   
    17    5   17 1   
    18    6   18 1   
    19    7   19 1   
@<TRIPOS>SUBSTRUCTURE
     1 R0_         1 TEMP              0 ****  ****    0 ROOT
