@<TRIPOS>MOLECULE
1,2,3,4,5-pentachloro-6-(2,3,4,5,6-pentachlorophenyl)benzene
   22    23     1     0     0
SMALL
No Charge or Current Charge


@<TRIPOS>ATOM
      1 C1          1.8850   -1.0360   -0.1120 cp        1 MOL     -0.028000
      2 C2          1.9290   -1.0160   -1.5690 cp        1 MOL     -0.028100
      3 C3          0.8070   -0.4630    0.5610 ca        1 MOL      0.052600
      4 C4          2.9210   -1.6310    0.6080 ca        1 MOL      0.052800
      5 C5          2.5330    0.0520   -2.2340 ca        1 MOL      0.053200
      6 C6          1.3690   -2.0650   -2.2990 ca        1 MOL      0.052100
      7 C7          0.7640   -0.4840    1.9550 ca        1 MOL      0.015700
      8 C8          2.8780   -1.6520    2.0020 ca        1 MOL      0.015500
      9 C9          2.5760    0.0700   -3.6280 ca        1 MOL      0.016100
     10 C10         1.4130   -2.0460   -3.6930 ca        1 MOL      0.015300
     11 C11         1.8000   -1.0790    2.6760 ca        1 MOL      0.037500
     12 C12         2.0160   -0.9790   -4.3570 ca        1 MOL      0.037800
     13 Cl1        -0.4830    0.2770   -0.3510 cl        1 MOL     -0.033000
     14 Cl2         4.2640   -2.3450   -0.2450 cl        1 MOL     -0.033300
     15 Cl3         3.2300    1.3570   -1.3110 cl        1 MOL     -0.033300
     16 Cl4         0.6180   -3.3940   -1.4560 cl        1 MOL     -0.031000
     17 Cl5        -0.5850    0.2340    2.7950 cl        1 MOL     -0.027200
     18 Cl6         4.1750   -2.3940    2.9000 cl        1 MOL     -0.027200
     19 Cl7         3.3300    1.4060   -4.4570 cl        1 MOL     -0.027300
     20 Cl8         0.7100   -3.3580   -4.6020 cl        1 MOL     -0.027100
     21 Cl9         1.7480   -1.1030    4.4180 cl        1 MOL     -0.025900
     22 Cl10        2.0690   -0.9550   -6.1000 cl        1 MOL     -0.027000
@<TRIPOS>BOND
     1    1    2 1   
     2    1    3 ar  
     3    1    4 ar  
     4    2    5 ar  
     5    2    6 ar  
     6    3    7 ar  
     7    3   13 1   
     8    4    8 ar  
     9    4   14 1   
    10    5    9 ar  
    11    5   15 1   
    12    6   10 ar  
    13    6   16 1   
    14    7   11 ar  
    15    7   17 1   
    16    8   11 ar  
    17    8   18 1   
    18    9   12 ar  
    19    9   19 1   
    20   10   12 ar  
    21   10   20 1   
    22   11   21 1   
    23   12   22 1   
@<TRIPOS>SUBSTRUCTURE
     1 MOL         1 TEMP              0 ****  ****    0 ROOT
